/*---------------------------------------------------------------------------*\
  =========                 |
  \\      /  F ield         | OpenFOAM: The Open Source CFD Toolbox
   \\    /   O peration     | Website:  https://openfoam.org
    \\  /    A nd           | Version:  dev
     \\/     M anipulation  |
\*---------------------------------------------------------------------------*/
Build  : dev-cabe48fb62c1
Exec   : fireDyMFoam
Date   : Apr 15 2019
Time   : 13:45:42
Host   : "Host"
PID    : 6099
I/O    : uncollated
Case   : /home/tesla/OpenFOAM/tesla-dev/run/rollerOpt_COBYLA_NEW
nProcs : 1
sigFpe : Enabling floating point exception trapping (FOAM_SIGFPE).
fileModificationChecking : Monitoring run-time modified files using timeStampMaster (fileModificationSkew 10)
allowSystemOperations : Allowing user-supplied system call operations

// * * * * * * * * * * * * * * * * * * * * * * * * * * * * * * * * * * * * * //
Create time

--> FOAM Warning : 
    From function void* Foam::dlOpen(const Foam::fileName&, bool)
    in file POSIX.C at line 1268
    dlopen error : libgroovyBC.so: cannot open shared object file: No such file or directory
--> FOAM Warning : 
    From function bool Foam::dlLibraryTable::open(const Foam::fileName&, bool)
    in file db/dynamicLibrary/dlLibraryTable/dlLibraryTable.C at line 105
    could not load "libgroovyBC.so"
Create mesh for time = 250

Selecting dynamicFvMesh dynamicRefineFvMesh
Detected 538 cells that are protected from refinement. Writing these to cellSet protectedCells.

PIMPLE: No convergence criteria found


PIMPLE: Operating solver in PISO mode


Initializing Solver

Selecting thermodynamics package 
{
    type            hePsiThermo;
    mixture         reactingMixture;
    transport       sutherland;
    thermo          janaf;
    energy          sensibleEnthalpy;
    equationOfState perfectGas;
    specie          specie;
}

Selecting chemistryReader foamChemistryReader
    elements not defined in "/home/tesla/OpenFOAM/tesla-dev/run/rollerOpt_COBYLA_NEW/constant/reactions"
Reading/calculating face flux field phi

No MRF models present

Selecting turbulence model type RAS
Selecting RAS turbulence model kOmegaSST
Selecting patchDistMethod meshWave
kOmegaSSTCoeffs
{
    delta           cubeRootVol;
    cubeRootVolCoeffs
    {
        deltaCoeff      1;
    }
    alphaK1         0.85;
    alphaK2         1;
    alphaOmega1     0.5;
    alphaOmega2     0.856;
    gamma1          0.555556;
    gamma2          0.44;
    beta1           0.075;
    beta2           0.0828;
    betaStar        0.09;
    a1              0.31;
    b1              1;
    c1              10;
    F3              false;
}

Selecting combustion model none<psiThermoCombustion>
--> FOAM Warning : 
    From function static Foam::autoPtr<T> Foam::combustionModel::New(typename CombustionModel::reactionThermo&, const Foam::compressibleTurbulenceModel&, const Foam::word&) [with CombustionModel = Foam::CombustionModel<Foam::psiReactionThermo>; typename CombustionModel::reactionThermo = Foam::psiReactionThermo]
    in file /home/tesla/OpenFOAM/OpenFOAM-dev/src/combustionModels/lnInclude/combustionModelTemplates.C at line 69
    Template parameters are no longer required when selecting a combustionModel. This information is now obtained directly from the thermodynamics. Actually selecting combustion model none.

Reading g

Reading hRef
Calculating field g.h


Reading pRef
Selecting radiationModel P1
Selecting absorptionEmissionModel greyMeanAbsorptionEmission
Selecting scatterModel none
Selecting sootModel none
Creating finite volume options from "system/fvOptions"

No finite volume options present
Using LTS

Starting time loop

Using dynamicCode for functionObject patchCalcs at line 64 in "/home/tesla/OpenFOAM/tesla-dev/run/rollerOpt_COBYLA_NEW/system/controlDict.functions.patchCalcs"
    Overall     = 0.00129722, 0.01
Time = 251

diagonal:  Solving for rho, Initial residual = 0, Final residual = 0, No Iterations 0

Execution time for mesh.update() = 0 s

DILUPBiCGStab:  Solving for Ux, Initial residual = 0.00405109, Final residual = 9.27099e-09, No Iterations 3
DILUPBiCGStab:  Solving for Uy, Initial residual = 0.00929394, Final residual = 1.90125e-09, No Iterations 3
GAMGPCG:  Solving for G, Initial residual = 0.0282951, Final residual = 2.43675e-05, No Iterations 4
DILUPBiCGStab:  Solving for O2, Initial residual = 0.00253867, Final residual = 3.15832e-09, No Iterations 3
DILUPBiCGStab:  Solving for H2O, Initial residual = 0.0025391, Final residual = 3.15786e-09, No Iterations 3
DILUPBiCGStab:  Solving for CH4, Initial residual = 0, Final residual = 0, No Iterations 0
DILUPBiCGStab:  Solving for CO2, Initial residual = 0.0025391, Final residual = 3.15787e-09, No Iterations 3
DILUPBiCGStab:  Solving for h, Initial residual = 0.00283282, Final residual = 3.54506e-09, No Iterations 3
min/max(T) = 299.562, 1044.98
GAMGPCG:  Solving for p_rgh, Initial residual = 0.0199516, Final residual = 1.26142e-07, No Iterations 5
diagonal:  Solving for rho, Initial residual = 0, Final residual = 0, No Iterations 0
time step continuity errors : sum local = 2.45894e-06, global = -1.37209e-07, cumulative = -1.37209e-07
GAMGPCG:  Solving for p_rgh, Initial residual = 0.00302349, Final residual = 3.632e-07, No Iterations 4
diagonal:  Solving for rho, Initial residual = 0, Final residual = 0, No Iterations 0
time step continuity errors : sum local = 2.45975e-06, global = -1.34767e-07, cumulative = -2.71976e-07
DILUPBiCGStab:  Solving for omega, Initial residual = 9.89961e-05, Final residual = 1.75734e-09, No Iterations 2
DILUPBiCGStab:  Solving for k, Initial residual = 0.00411743, Final residual = 3.44283e-09, No Iterations 3

ExecutionTime = 0.37 s  ClockTime = 0 s

    Overall     = 0.00129312, 0.01
Time = 252

diagonal:  Solving for rho, Initial residual = 0, Final residual = 0, No Iterations 0

Execution time for mesh.update() = 0 s

DILUPBiCGStab:  Solving for Ux, Initial residual = 0.0040472, Final residual = 8.02024e-09, No Iterations 3
DILUPBiCGStab:  Solving for Uy, Initial residual = 0.00927013, Final residual = 1.74792e-09, No Iterations 3
DILUPBiCGStab:  Solving for O2, Initial residual = 0.00253157, Final residual = 2.47174e-09, No Iterations 3
DILUPBiCGStab:  Solving for H2O, Initial residual = 0.00253197, Final residual = 2.47122e-09, No Iterations 3
DILUPBiCGStab:  Solving for CH4, Initial residual = 0, Final residual = 0, No Iterations 0
DILUPBiCGStab:  Solving for CO2, Initial residual = 0.00253197, Final residual = 2.47122e-09, No Iterations 3
DILUPBiCGStab:  Solving for h, Initial residual = 0.00282512, Final residual = 2.85076e-09, No Iterations 3
min/max(T) = 299.569, 1044.98
GAMGPCG:  Solving for p_rgh, Initial residual = 0.0196508, Final residual = 1.30828e-07, No Iterations 5
diagonal:  Solving for rho, Initial residual = 0, Final residual = 0, No Iterations 0
time step continuity errors : sum local = 5.49243e-09, global = -2.25263e-10, cumulative = -2.72202e-07
GAMGPCG:  Solving for p_rgh, Initial residual = 0.00289808, Final residual = 3.46267e-07, No Iterations 4
diagonal:  Solving for rho, Initial residual = 0, Final residual = 0, No Iterations 0
time step continuity errors : sum local = 1.3748e-08, global = 1.67044e-09, cumulative = -2.70531e-07
DILUPBiCGStab:  Solving for omega, Initial residual = 9.85921e-05, Final residual = 1.71093e-09, No Iterations 2
DILUPBiCGStab:  Solving for k, Initial residual = 0.00412676, Final residual = 3.42426e-09, No Iterations 3

ExecutionTime = 0.49 s  ClockTime = 0 s

    Overall     = 0.00129443, 0.01
Time = 253

diagonal:  Solving for rho, Initial residual = 0, Final residual = 0, No Iterations 0

Execution time for mesh.update() = 0 s

DILUPBiCGStab:  Solving for Ux, Initial residual = 0.00403075, Final residual = 8.73927e-09, No Iterations 3
DILUPBiCGStab:  Solving for Uy, Initial residual = 0.00922401, Final residual = 1.78857e-09, No Iterations 3
DILUPBiCGStab:  Solving for O2, Initial residual = 0.00252287, Final residual = 2.61661e-09, No Iterations 3
DILUPBiCGStab:  Solving for H2O, Initial residual = 0.00252332, Final residual = 2.61636e-09, No Iterations 3
DILUPBiCGStab:  Solving for CH4, Initial residual = 0, Final residual = 0, No Iterations 0
DILUPBiCGStab:  Solving for CO2, Initial residual = 0.00252332, Final residual = 2.61636e-09, No Iterations 3
DILUPBiCGStab:  Solving for h, Initial residual = 0.00281138, Final residual = 2.79929e-09, No Iterations 3
min/max(T) = 299.575, 1044.98
GAMGPCG:  Solving for p_rgh, Initial residual = 0.0192395, Final residual = 1.34397e-07, No Iterations 5
diagonal:  Solving for rho, Initial residual = 0, Final residual = 0, No Iterations 0
time step continuity errors : sum local = 5.67289e-09, global = -1.88674e-10, cumulative = -2.7072e-07
GAMGPCG:  Solving for p_rgh, Initial residual = 0.00286584, Final residual = 3.5135e-07, No Iterations 4
diagonal:  Solving for rho, Initial residual = 0, Final residual = 0, No Iterations 0
time step continuity errors : sum local = 1.39724e-08, global = 1.86722e-09, cumulative = -2.68853e-07
DILUPBiCGStab:  Solving for omega, Initial residual = 9.8037e-05, Final residual = 1.66691e-09, No Iterations 2
DILUPBiCGStab:  Solving for k, Initial residual = 0.00412764, Final residual = 7.00171e-09, No Iterations 3

ExecutionTime = 0.61 s  ClockTime = 0 s

    Overall     = 0.0012907, 0.01
Time = 254

diagonal:  Solving for rho, Initial residual = 0, Final residual = 0, No Iterations 0

Execution time for mesh.update() = 0 s

DILUPBiCGStab:  Solving for Ux, Initial residual = 0.00403071, Final residual = 6.53728e-09, No Iterations 3
DILUPBiCGStab:  Solving for Uy, Initial residual = 0.00920577, Final residual = 1.83518e-09, No Iterations 3
DILUPBiCGStab:  Solving for O2, Initial residual = 0.00251126, Final residual = 2.46412e-09, No Iterations 3
DILUPBiCGStab:  Solving for H2O, Initial residual = 0.00251165, Final residual = 2.46432e-09, No Iterations 3
DILUPBiCGStab:  Solving for CH4, Initial residual = 0, Final residual = 0, No Iterations 0
DILUPBiCGStab:  Solving for CO2, Initial residual = 0.00251165, Final residual = 2.46432e-09, No Iterations 3
DILUPBiCGStab:  Solving for h, Initial residual = 0.00279884, Final residual = 2.74082e-09, No Iterations 3
min/max(T) = 299.586, 1044.98
GAMGPCG:  Solving for p_rgh, Initial residual = 0.0189679, Final residual = 1.41107e-07, No Iterations 5
diagonal:  Solving for rho, Initial residual = 0, Final residual = 0, No Iterations 0
time step continuity errors : sum local = 5.99253e-09, global = 9.27327e-10, cumulative = -2.67925e-07
GAMGPCG:  Solving for p_rgh, Initial residual = 0.00284042, Final residual = 3.48699e-07, No Iterations 4
diagonal:  Solving for rho, Initial residual = 0, Final residual = 0, No Iterations 0
time step continuity errors : sum local = 1.3943e-08, global = 1.81501e-09, cumulative = -2.6611e-07
DILUPBiCGStab:  Solving for omega, Initial residual = 9.81588e-05, Final residual = 1.77804e-09, No Iterations 2
DILUPBiCGStab:  Solving for k, Initial residual = 0.00412773, Final residual = 1.37739e-09, No Iterations 3

ExecutionTime = 0.73 s  ClockTime = 0 s

    Overall     = 0.00129185, 0.01
Time = 255

diagonal:  Solving for rho, Initial residual = 0, Final residual = 0, No Iterations 0

Execution time for mesh.update() = 0 s

DILUPBiCGStab:  Solving for Ux, Initial residual = 0.004028, Final residual = 6.20534e-09, No Iterations 3
DILUPBiCGStab:  Solving for Uy, Initial residual = 0.00916214, Final residual = 1.75553e-09, No Iterations 3
DILUPBiCGStab:  Solving for O2, Initial residual = 0.00250133, Final residual = 2.27578e-09, No Iterations 3
DILUPBiCGStab:  Solving for H2O, Initial residual = 0.00250174, Final residual = 2.27573e-09, No Iterations 3
DILUPBiCGStab:  Solving for CH4, Initial residual = 0, Final residual = 0, No Iterations 0
DILUPBiCGStab:  Solving for CO2, Initial residual = 0.00250174, Final residual = 2.27573e-09, No Iterations 3
DILUPBiCGStab:  Solving for h, Initial residual = 0.00278775, Final residual = 2.43048e-09, No Iterations 3
min/max(T) = 299.592, 1044.98
GAMGPCG:  Solving for p_rgh, Initial residual = 0.0189776, Final residual = 1.4193e-07, No Iterations 5
diagonal:  Solving for rho, Initial residual = 0, Final residual = 0, No Iterations 0
time step continuity errors : sum local = 5.99029e-09, global = -1.31908e-10, cumulative = -2.66242e-07
GAMGPCG:  Solving for p_rgh, Initial residual = 0.00275962, Final residual = 3.63443e-07, No Iterations 4
diagonal:  Solving for rho, Initial residual = 0, Final residual = 0, No Iterations 0
time step continuity errors : sum local = 1.46091e-08, global = 2.03397e-09, cumulative = -2.64208e-07
DILUPBiCGStab:  Solving for omega, Initial residual = 9.71566e-05, Final residual = 1.93246e-09, No Iterations 2
DILUPBiCGStab:  Solving for k, Initial residual = 0.00413571, Final residual = 6.95647e-09, No Iterations 3

ExecutionTime = 0.85 s  ClockTime = 0 s

    Overall     = 0.00128841, 0.01
Time = 256

diagonal:  Solving for rho, Initial residual = 0, Final residual = 0, No Iterations 0

Execution time for mesh.update() = 0 s

DILUPBiCGStab:  Solving for Ux, Initial residual = 0.00403857, Final residual = 6.11345e-09, No Iterations 3
DILUPBiCGStab:  Solving for Uy, Initial residual = 0.00916128, Final residual = 1.63944e-09, No Iterations 3
DILUPBiCGStab:  Solving for O2, Initial residual = 0.00249194, Final residual = 2.36758e-09, No Iterations 3
DILUPBiCGStab:  Solving for H2O, Initial residual = 0.00249232, Final residual = 2.36781e-09, No Iterations 3
DILUPBiCGStab:  Solving for CH4, Initial residual = 0, Final residual = 0, No Iterations 0
DILUPBiCGStab:  Solving for CO2, Initial residual = 0.00249232, Final residual = 2.36781e-09, No Iterations 3
DILUPBiCGStab:  Solving for h, Initial residual = 0.0027782, Final residual = 2.51568e-09, No Iterations 3
min/max(T) = 299.604, 1044.98
GAMGPCG:  Solving for p_rgh, Initial residual = 0.0188308, Final residual = 1.38916e-07, No Iterations 5
diagonal:  Solving for rho, Initial residual = 0, Final residual = 0, No Iterations 0
time step continuity errors : sum local = 5.92392e-09, global = 5.72985e-10, cumulative = -2.63635e-07
GAMGPCG:  Solving for p_rgh, Initial residual = 0.00279565, Final residual = 3.44463e-07, No Iterations 4
diagonal:  Solving for rho, Initial residual = 0, Final residual = 0, No Iterations 0
time step continuity errors : sum local = 1.38699e-08, global = 1.82291e-09, cumulative = -2.61812e-07
DILUPBiCGStab:  Solving for omega, Initial residual = 9.69724e-05, Final residual = 2.11882e-09, No Iterations 2
DILUPBiCGStab:  Solving for k, Initial residual = 0.00414103, Final residual = 2.75665e-09, No Iterations 3

ExecutionTime = 0.97 s  ClockTime = 1 s

    Overall     = 0.00128944, 0.01
Time = 257

diagonal:  Solving for rho, Initial residual = 0, Final residual = 0, No Iterations 0

Execution time for mesh.update() = 0 s

DILUPBiCGStab:  Solving for Ux, Initial residual = 0.0040338, Final residual = 5.62517e-09, No Iterations 3
DILUPBiCGStab:  Solving for Uy, Initial residual = 0.00912974, Final residual = 1.43535e-09, No Iterations 3
DILUPBiCGStab:  Solving for O2, Initial residual = 0.00248204, Final residual = 2.43812e-09, No Iterations 3
DILUPBiCGStab:  Solving for H2O, Initial residual = 0.00248243, Final residual = 2.4381e-09, No Iterations 3
DILUPBiCGStab:  Solving for CH4, Initial residual = 0, Final residual = 0, No Iterations 0
DILUPBiCGStab:  Solving for CO2, Initial residual = 0.00248243, Final residual = 2.4381e-09, No Iterations 3
DILUPBiCGStab:  Solving for h, Initial residual = 0.00276796, Final residual = 2.66915e-09, No Iterations 3
min/max(T) = 299.609, 1044.98
GAMGPCG:  Solving for p_rgh, Initial residual = 0.0187074, Final residual = 1.35771e-07, No Iterations 5
diagonal:  Solving for rho, Initial residual = 0, Final residual = 0, No Iterations 0
time step continuity errors : sum local = 5.79726e-09, global = -1.42634e-10, cumulative = -2.61955e-07
GAMGPCG:  Solving for p_rgh, Initial residual = 0.00274204, Final residual = 3.78953e-07, No Iterations 4
diagonal:  Solving for rho, Initial residual = 0, Final residual = 0, No Iterations 0
time step continuity errors : sum local = 1.52372e-08, global = 1.96935e-09, cumulative = -2.59986e-07
DILUPBiCGStab:  Solving for omega, Initial residual = 9.6266e-05, Final residual = 2.08142e-09, No Iterations 2
DILUPBiCGStab:  Solving for k, Initial residual = 0.00415009, Final residual = 2.75505e-09, No Iterations 3

ExecutionTime = 1.09 s  ClockTime = 1 s

    Overall     = 0.00128645, 0.01
Time = 258

diagonal:  Solving for rho, Initial residual = 0, Final residual = 0, No Iterations 0

Execution time for mesh.update() = 0 s

DILUPBiCGStab:  Solving for Ux, Initial residual = 0.00404978, Final residual = 5.53346e-09, No Iterations 3
DILUPBiCGStab:  Solving for Uy, Initial residual = 0.00916264, Final residual = 1.45838e-09, No Iterations 3
DILUPBiCGStab:  Solving for O2, Initial residual = 0.00247156, Final residual = 2.53983e-09, No Iterations 3
DILUPBiCGStab:  Solving for H2O, Initial residual = 0.00247168, Final residual = 2.53967e-09, No Iterations 3
DILUPBiCGStab:  Solving for CH4, Initial residual = 0, Final residual = 0, No Iterations 0
DILUPBiCGStab:  Solving for CO2, Initial residual = 0.00247168, Final residual = 2.53967e-09, No Iterations 3
DILUPBiCGStab:  Solving for h, Initial residual = 0.00275759, Final residual = 2.70212e-09, No Iterations 3
min/max(T) = 299.622, 1044.98
GAMGPCG:  Solving for p_rgh, Initial residual = 0.0186848, Final residual = 1.49441e-07, No Iterations 5
diagonal:  Solving for rho, Initial residual = 0, Final residual = 0, No Iterations 0
time step continuity errors : sum local = 6.44474e-09, global = -3.92332e-10, cumulative = -2.60378e-07
GAMGPCG:  Solving for p_rgh, Initial residual = 0.00275197, Final residual = 3.5222e-07, No Iterations 4
diagonal:  Solving for rho, Initial residual = 0, Final residual = 0, No Iterations 0
time step continuity errors : sum local = 1.41387e-08, global = 1.64321e-09, cumulative = -2.58735e-07
DILUPBiCGStab:  Solving for omega, Initial residual = 9.58377e-05, Final residual = 2.13528e-09, No Iterations 2
DILUPBiCGStab:  Solving for k, Initial residual = 0.00415174, Final residual = 2.85902e-09, No Iterations 3

ExecutionTime = 1.21 s  ClockTime = 1 s

    Overall     = 0.00128745, 0.01
Time = 259

diagonal:  Solving for rho, Initial residual = 0, Final residual = 0, No Iterations 0

Execution time for mesh.update() = 0 s

DILUPBiCGStab:  Solving for Ux, Initial residual = 0.00404976, Final residual = 5.61279e-09, No Iterations 3
DILUPBiCGStab:  Solving for Uy, Initial residual = 0.00913975, Final residual = 1.35352e-09, No Iterations 3
DILUPBiCGStab:  Solving for O2, Initial residual = 0.00245787, Final residual = 2.74205e-09, No Iterations 3
DILUPBiCGStab:  Solving for H2O, Initial residual = 0.00245823, Final residual = 2.74211e-09, No Iterations 3
DILUPBiCGStab:  Solving for CH4, Initial residual = 0, Final residual = 0, No Iterations 0
DILUPBiCGStab:  Solving for CO2, Initial residual = 0.00245823, Final residual = 2.74211e-09, No Iterations 3
DILUPBiCGStab:  Solving for h, Initial residual = 0.00274362, Final residual = 2.83287e-09, No Iterations 3
min/max(T) = 299.624, 1044.98
GAMGPCG:  Solving for p_rgh, Initial residual = 0.018535, Final residual = 1.41678e-07, No Iterations 5
diagonal:  Solving for rho, Initial residual = 0, Final residual = 0, No Iterations 0
time step continuity errors : sum local = 6.11506e-09, global = -3.81764e-10, cumulative = -2.59116e-07
GAMGPCG:  Solving for p_rgh, Initial residual = 0.00271623, Final residual = 3.59791e-07, No Iterations 4
diagonal:  Solving for rho, Initial residual = 0, Final residual = 0, No Iterations 0
time step continuity errors : sum local = 1.45129e-08, global = 1.63998e-09, cumulative = -2.57476e-07
DILUPBiCGStab:  Solving for omega, Initial residual = 9.52664e-05, Final residual = 2.18129e-09, No Iterations 2
DILUPBiCGStab:  Solving for k, Initial residual = 0.00416167, Final residual = 4.43839e-09, No Iterations 3

ExecutionTime = 1.33 s  ClockTime = 1 s

    Overall     = 0.00128493, 0.01
Time = 260

diagonal:  Solving for rho, Initial residual = 0, Final residual = 0, No Iterations 0

Execution time for mesh.update() = 0 s

DILUPBiCGStab:  Solving for Ux, Initial residual = 0.00405467, Final residual = 5.63089e-09, No Iterations 3
DILUPBiCGStab:  Solving for Uy, Initial residual = 0.00913507, Final residual = 1.35004e-09, No Iterations 3
GAMGPCG:  Solving for G, Initial residual = 0.0990765, Final residual = 7.25198e-05, No Iterations 5
DILUPBiCGStab:  Solving for O2, Initial residual = 0.00245065, Final residual = 3.2217e-09, No Iterations 3
DILUPBiCGStab:  Solving for H2O, Initial residual = 0.00245077, Final residual = 3.22178e-09, No Iterations 3
DILUPBiCGStab:  Solving for CH4, Initial residual = 0, Final residual = 0, No Iterations 0
DILUPBiCGStab:  Solving for CO2, Initial residual = 0.00245077, Final residual = 3.22178e-09, No Iterations 3
DILUPBiCGStab:  Solving for h, Initial residual = 0.00273412, Final residual = 3.31869e-09, No Iterations 3
min/max(T) = 299.636, 1044.98
GAMGPCG:  Solving for p_rgh, Initial residual = 0.0185101, Final residual = 1.49789e-07, No Iterations 5
diagonal:  Solving for rho, Initial residual = 0, Final residual = 0, No Iterations 0
time step continuity errors : sum local = 6.49025e-09, global = -1.68886e-10, cumulative = -2.57645e-07
GAMGPCG:  Solving for p_rgh, Initial residual = 0.00273957, Final residual = 3.68866e-07, No Iterations 4
diagonal:  Solving for rho, Initial residual = 0, Final residual = 0, No Iterations 0
time step continuity errors : sum local = 1.47887e-08, global = 1.69639e-09, cumulative = -2.55949e-07
DILUPBiCGStab:  Solving for omega, Initial residual = 9.55015e-05, Final residual = 2.19983e-09, No Iterations 2
DILUPBiCGStab:  Solving for k, Initial residual = 0.00416576, Final residual = 6.49337e-09, No Iterations 3

ExecutionTime = 1.59 s  ClockTime = 1 s

    Overall     = 0.00128601, 0.01
Time = 261

diagonal:  Solving for rho, Initial residual = 0, Final residual = 0, No Iterations 0

Execution time for mesh.update() = 0 s

DILUPBiCGStab:  Solving for Ux, Initial residual = 0.00404891, Final residual = 6.02717e-09, No Iterations 3
DILUPBiCGStab:  Solving for Uy, Initial residual = 0.00906801, Final residual = 1.35602e-09, No Iterations 3
DILUPBiCGStab:  Solving for O2, Initial residual = 0.00243742, Final residual = 3.36515e-09, No Iterations 3
DILUPBiCGStab:  Solving for H2O, Initial residual = 0.00243779, Final residual = 3.36496e-09, No Iterations 3
DILUPBiCGStab:  Solving for CH4, Initial residual = 0, Final residual = 0, No Iterations 0
DILUPBiCGStab:  Solving for CO2, Initial residual = 0.00243779, Final residual = 3.36496e-09, No Iterations 3
DILUPBiCGStab:  Solving for h, Initial residual = 0.00271929, Final residual = 3.56652e-09, No Iterations 3
min/max(T) = 299.636, 1044.98
GAMGPCG:  Solving for p_rgh, Initial residual = 0.0181796, Final residual = 1.41925e-07, No Iterations 5
diagonal:  Solving for rho, Initial residual = 0, Final residual = 0, No Iterations 0
time step continuity errors : sum local = 6.13182e-09, global = -1.92508e-10, cumulative = -2.56141e-07
GAMGPCG:  Solving for p_rgh, Initial residual = 0.00271878, Final residual = 3.7125e-07, No Iterations 4
diagonal:  Solving for rho, Initial residual = 0, Final residual = 0, No Iterations 0
time step continuity errors : sum local = 1.49205e-08, global = 1.98061e-09, cumulative = -2.54161e-07
DILUPBiCGStab:  Solving for omega, Initial residual = 9.51394e-05, Final residual = 2.17524e-09, No Iterations 2
DILUPBiCGStab:  Solving for k, Initial residual = 0.00416552, Final residual = 3.60304e-09, No Iterations 3

ExecutionTime = 1.71 s  ClockTime = 1 s

    Overall     = 0.00128385, 0.01
Time = 262

diagonal:  Solving for rho, Initial residual = 0, Final residual = 0, No Iterations 0

Execution time for mesh.update() = 0 s

DILUPBiCGStab:  Solving for Ux, Initial residual = 0.0040468, Final residual = 6.33872e-09, No Iterations 3
DILUPBiCGStab:  Solving for Uy, Initial residual = 0.00904047, Final residual = 1.33975e-09, No Iterations 3
DILUPBiCGStab:  Solving for O2, Initial residual = 0.0024314, Final residual = 3.3384e-09, No Iterations 3
DILUPBiCGStab:  Solving for H2O, Initial residual = 0.00243151, Final residual = 3.3386e-09, No Iterations 3
DILUPBiCGStab:  Solving for CH4, Initial residual = 0, Final residual = 0, No Iterations 0
DILUPBiCGStab:  Solving for CO2, Initial residual = 0.00243152, Final residual = 3.3386e-09, No Iterations 3
DILUPBiCGStab:  Solving for h, Initial residual = 0.00271407, Final residual = 3.4457e-09, No Iterations 3
min/max(T) = 299.646, 1044.98
GAMGPCG:  Solving for p_rgh, Initial residual = 0.0182013, Final residual = 1.47145e-07, No Iterations 5
diagonal:  Solving for rho, Initial residual = 0, Final residual = 0, No Iterations 0
time step continuity errors : sum local = 6.35434e-09, global = -5.95621e-11, cumulative = -2.5422e-07
GAMGPCG:  Solving for p_rgh, Initial residual = 0.00269354, Final residual = 3.74064e-07, No Iterations 4
diagonal:  Solving for rho, Initial residual = 0, Final residual = 0, No Iterations 0
time step continuity errors : sum local = 1.51324e-08, global = 2.08818e-09, cumulative = -2.52132e-07
DILUPBiCGStab:  Solving for omega, Initial residual = 9.48348e-05, Final residual = 2.05454e-09, No Iterations 2
DILUPBiCGStab:  Solving for k, Initial residual = 0.00416803, Final residual = 3.54145e-09, No Iterations 3

ExecutionTime = 1.83 s  ClockTime = 1 s

    Overall     = 0.00128508, 0.01
Time = 263

diagonal:  Solving for rho, Initial residual = 0, Final residual = 0, No Iterations 0

Execution time for mesh.update() = 0 s

DILUPBiCGStab:  Solving for Ux, Initial residual = 0.00403999, Final residual = 6.65243e-09, No Iterations 3
DILUPBiCGStab:  Solving for Uy, Initial residual = 0.00901541, Final residual = 1.37976e-09, No Iterations 3
DILUPBiCGStab:  Solving for O2, Initial residual = 0.00241958, Final residual = 3.17575e-09, No Iterations 3
DILUPBiCGStab:  Solving for H2O, Initial residual = 0.00241993, Final residual = 3.17571e-09, No Iterations 3
DILUPBiCGStab:  Solving for CH4, Initial residual = 0, Final residual = 0, No Iterations 0
DILUPBiCGStab:  Solving for CO2, Initial residual = 0.00241993, Final residual = 3.17571e-09, No Iterations 3
DILUPBiCGStab:  Solving for h, Initial residual = 0.00269847, Final residual = 3.29595e-09, No Iterations 3
min/max(T) = 299.644, 1044.98
GAMGPCG:  Solving for p_rgh, Initial residual = 0.0179562, Final residual = 1.45666e-07, No Iterations 5
diagonal:  Solving for rho, Initial residual = 0, Final residual = 0, No Iterations 0
time step continuity errors : sum local = 6.26166e-09, global = -2.96868e-10, cumulative = -2.52429e-07
GAMGPCG:  Solving for p_rgh, Initial residual = 0.00267988, Final residual = 3.85933e-07, No Iterations 4
diagonal:  Solving for rho, Initial residual = 0, Final residual = 0, No Iterations 0
time step continuity errors : sum local = 1.56148e-08, global = 2.44568e-09, cumulative = -2.49983e-07
DILUPBiCGStab:  Solving for omega, Initial residual = 9.42065e-05, Final residual = 1.99911e-09, No Iterations 2
DILUPBiCGStab:  Solving for k, Initial residual = 0.00417218, Final residual = 3.66937e-09, No Iterations 3

ExecutionTime = 1.95 s  ClockTime = 2 s

    Overall     = 0.0012832, 0.01
Time = 264

diagonal:  Solving for rho, Initial residual = 0, Final residual = 0, No Iterations 0

Execution time for mesh.update() = 0 s

DILUPBiCGStab:  Solving for Ux, Initial residual = 0.00404024, Final residual = 6.85017e-09, No Iterations 3
DILUPBiCGStab:  Solving for Uy, Initial residual = 0.00901856, Final residual = 1.39334e-09, No Iterations 3
DILUPBiCGStab:  Solving for O2, Initial residual = 0.00241154, Final residual = 3.8298e-09, No Iterations 3
DILUPBiCGStab:  Solving for H2O, Initial residual = 0.00241166, Final residual = 3.82959e-09, No Iterations 3
DILUPBiCGStab:  Solving for CH4, Initial residual = 0, Final residual = 0, No Iterations 0
DILUPBiCGStab:  Solving for CO2, Initial residual = 0.00241166, Final residual = 3.82959e-09, No Iterations 3
DILUPBiCGStab:  Solving for h, Initial residual = 0.00269123, Final residual = 3.78259e-09, No Iterations 3
min/max(T) = 299.651, 1044.98
GAMGPCG:  Solving for p_rgh, Initial residual = 0.0180302, Final residual = 1.47752e-07, No Iterations 5
diagonal:  Solving for rho, Initial residual = 0, Final residual = 0, No Iterations 0
time step continuity errors : sum local = 6.30544e-09, global = -2.76586e-10, cumulative = -2.5026e-07
GAMGPCG:  Solving for p_rgh, Initial residual = 0.00265814, Final residual = 4.25552e-07, No Iterations 4
diagonal:  Solving for rho, Initial residual = 0, Final residual = 0, No Iterations 0
time step continuity errors : sum local = 1.72622e-08, global = 2.76386e-09, cumulative = -2.47496e-07
DILUPBiCGStab:  Solving for omega, Initial residual = 9.41095e-05, Final residual = 1.90246e-09, No Iterations 2
DILUPBiCGStab:  Solving for k, Initial residual = 0.00416769, Final residual = 3.97228e-09, No Iterations 3

ExecutionTime = 2.07 s  ClockTime = 2 s

    Overall     = 0.00128464, 0.01
Time = 265

diagonal:  Solving for rho, Initial residual = 0, Final residual = 0, No Iterations 0

Execution time for mesh.update() = 0 s

DILUPBiCGStab:  Solving for Ux, Initial residual = 0.00403306, Final residual = 7.20829e-09, No Iterations 3
DILUPBiCGStab:  Solving for Uy, Initial residual = 0.00897825, Final residual = 1.44174e-09, No Iterations 3
DILUPBiCGStab:  Solving for O2, Initial residual = 0.00239604, Final residual = 2.93703e-09, No Iterations 3
DILUPBiCGStab:  Solving for H2O, Initial residual = 0.00239639, Final residual = 2.93725e-09, No Iterations 3
DILUPBiCGStab:  Solving for CH4, Initial residual = 0, Final residual = 0, No Iterations 0
DILUPBiCGStab:  Solving for CO2, Initial residual = 0.00239639, Final residual = 2.93725e-09, No Iterations 3
DILUPBiCGStab:  Solving for h, Initial residual = 0.00267437, Final residual = 3.07164e-09, No Iterations 3
min/max(T) = 299.647, 1044.98
GAMGPCG:  Solving for p_rgh, Initial residual = 0.0178005, Final residual = 1.59868e-07, No Iterations 5
diagonal:  Solving for rho, Initial residual = 0, Final residual = 0, No Iterations 0
time step continuity errors : sum local = 6.77165e-09, global = -4.72665e-10, cumulative = -2.47969e-07
GAMGPCG:  Solving for p_rgh, Initial residual = 0.00263428, Final residual = 4.34824e-07, No Iterations 4
diagonal:  Solving for rho, Initial residual = 0, Final residual = 0, No Iterations 0
time step continuity errors : sum local = 1.75755e-08, global = 2.78099e-09, cumulative = -2.45188e-07
DILUPBiCGStab:  Solving for omega, Initial residual = 9.34427e-05, Final residual = 1.86348e-09, No Iterations 2
DILUPBiCGStab:  Solving for k, Initial residual = 0.0041657, Final residual = 4.04945e-09, No Iterations 3

ExecutionTime = 2.19 s  ClockTime = 2 s

    Overall     = 0.00128306, 0.01
Time = 266

diagonal:  Solving for rho, Initial residual = 0, Final residual = 0, No Iterations 0

Execution time for mesh.update() = 0 s

DILUPBiCGStab:  Solving for Ux, Initial residual = 0.00402518, Final residual = 6.8791e-09, No Iterations 3
DILUPBiCGStab:  Solving for Uy, Initial residual = 0.0089606, Final residual = 1.50918e-09, No Iterations 3
DILUPBiCGStab:  Solving for O2, Initial residual = 0.0023886, Final residual = 2.67836e-09, No Iterations 3
DILUPBiCGStab:  Solving for H2O, Initial residual = 0.00238872, Final residual = 2.67798e-09, No Iterations 3
DILUPBiCGStab:  Solving for CH4, Initial residual = 0, Final residual = 0, No Iterations 0
DILUPBiCGStab:  Solving for CO2, Initial residual = 0.00238872, Final residual = 2.67798e-09, No Iterations 3
DILUPBiCGStab:  Solving for h, Initial residual = 0.00266454, Final residual = 2.98291e-09, No Iterations 3
min/max(T) = 299.651, 1044.98
GAMGPCG:  Solving for p_rgh, Initial residual = 0.0177139, Final residual = 1.67065e-07, No Iterations 5
diagonal:  Solving for rho, Initial residual = 0, Final residual = 0, No Iterations 0
time step continuity errors : sum local = 7.10489e-09, global = -3.18772e-10, cumulative = -2.45507e-07
GAMGPCG:  Solving for p_rgh, Initial residual = 0.00263366, Final residual = 4.58906e-07, No Iterations 4
diagonal:  Solving for rho, Initial residual = 0, Final residual = 0, No Iterations 0
time step continuity errors : sum local = 1.86081e-08, global = 2.935e-09, cumulative = -2.42572e-07
DILUPBiCGStab:  Solving for omega, Initial residual = 9.32223e-05, Final residual = 1.76368e-09, No Iterations 2
DILUPBiCGStab:  Solving for k, Initial residual = 0.00416586, Final residual = 4.05445e-09, No Iterations 3

ExecutionTime = 2.31 s  ClockTime = 2 s

    Overall     = 0.00128471, 0.01
Time = 267

diagonal:  Solving for rho, Initial residual = 0, Final residual = 0, No Iterations 0

Execution time for mesh.update() = 0 s

DILUPBiCGStab:  Solving for Ux, Initial residual = 0.00402157, Final residual = 6.94808e-09, No Iterations 3
DILUPBiCGStab:  Solving for Uy, Initial residual = 0.00893879, Final residual = 1.51119e-09, No Iterations 3
DILUPBiCGStab:  Solving for O2, Initial residual = 0.00238078, Final residual = 2.16589e-09, No Iterations 3
DILUPBiCGStab:  Solving for H2O, Initial residual = 0.00238112, Final residual = 2.16607e-09, No Iterations 3
DILUPBiCGStab:  Solving for CH4, Initial residual = 0, Final residual = 0, No Iterations 0
DILUPBiCGStab:  Solving for CO2, Initial residual = 0.00238112, Final residual = 2.16607e-09, No Iterations 3
DILUPBiCGStab:  Solving for h, Initial residual = 0.00265722, Final residual = 2.27894e-09, No Iterations 3
min/max(T) = 299.645, 1044.98
GAMGPCG:  Solving for p_rgh, Initial residual = 0.017602, Final residual = 1.58315e-07, No Iterations 5
diagonal:  Solving for rho, Initial residual = 0, Final residual = 0, No Iterations 0
time step continuity errors : sum local = 6.71507e-09, global = -1.93903e-10, cumulative = -2.42765e-07
GAMGPCG:  Solving for p_rgh, Initial residual = 0.00259723, Final residual = 4.52385e-07, No Iterations 4
diagonal:  Solving for rho, Initial residual = 0, Final residual = 0, No Iterations 0
time step continuity errors : sum local = 1.83314e-08, global = 3.0526e-09, cumulative = -2.39713e-07
DILUPBiCGStab:  Solving for omega, Initial residual = 9.28926e-05, Final residual = 1.731e-09, No Iterations 2
DILUPBiCGStab:  Solving for k, Initial residual = 0.00416094, Final residual = 3.9052e-09, No Iterations 3

ExecutionTime = 2.43 s  ClockTime = 2 s

    Overall     = 0.00128349, 0.01
Time = 268

diagonal:  Solving for rho, Initial residual = 0, Final residual = 0, No Iterations 0

Execution time for mesh.update() = 0 s

DILUPBiCGStab:  Solving for Ux, Initial residual = 0.00401112, Final residual = 6.9536e-09, No Iterations 3
DILUPBiCGStab:  Solving for Uy, Initial residual = 0.00890444, Final residual = 1.46127e-09, No Iterations 3
DILUPBiCGStab:  Solving for O2, Initial residual = 0.00237348, Final residual = 2.11068e-09, No Iterations 3
DILUPBiCGStab:  Solving for H2O, Initial residual = 0.0023736, Final residual = 2.11037e-09, No Iterations 3
DILUPBiCGStab:  Solving for CH4, Initial residual = 0, Final residual = 0, No Iterations 0
DILUPBiCGStab:  Solving for CO2, Initial residual = 0.0023736, Final residual = 2.11037e-09, No Iterations 3
DILUPBiCGStab:  Solving for h, Initial residual = 0.00264938, Final residual = 2.15786e-09, No Iterations 3
min/max(T) = 299.646, 1044.98
GAMGPCG:  Solving for p_rgh, Initial residual = 0.0174832, Final residual = 1.77281e-07, No Iterations 5
diagonal:  Solving for rho, Initial residual = 0, Final residual = 0, No Iterations 0
time step continuity errors : sum local = 7.56224e-09, global = -3.78708e-10, cumulative = -2.40092e-07
GAMGPCG:  Solving for p_rgh, Initial residual = 0.00259224, Final residual = 4.6535e-07, No Iterations 4
diagonal:  Solving for rho, Initial residual = 0, Final residual = 0, No Iterations 0
time step continuity errors : sum local = 1.88357e-08, global = 2.85692e-09, cumulative = -2.37235e-07
DILUPBiCGStab:  Solving for omega, Initial residual = 9.27774e-05, Final residual = 1.73492e-09, No Iterations 2
DILUPBiCGStab:  Solving for k, Initial residual = 0.00415226, Final residual = 3.81271e-09, No Iterations 3

ExecutionTime = 2.55 s  ClockTime = 2 s

    Overall     = 0.00128533, 0.01
Time = 269

diagonal:  Solving for rho, Initial residual = 0, Final residual = 0, No Iterations 0

Execution time for mesh.update() = 0 s

DILUPBiCGStab:  Solving for Ux, Initial residual = 0.00400865, Final residual = 6.19466e-09, No Iterations 3
DILUPBiCGStab:  Solving for Uy, Initial residual = 0.00887176, Final residual = 1.37153e-09, No Iterations 3
DILUPBiCGStab:  Solving for O2, Initial residual = 0.00236317, Final residual = 2.09545e-09, No Iterations 3
DILUPBiCGStab:  Solving for H2O, Initial residual = 0.00236347, Final residual = 2.09563e-09, No Iterations 3
DILUPBiCGStab:  Solving for CH4, Initial residual = 0, Final residual = 0, No Iterations 0
DILUPBiCGStab:  Solving for CO2, Initial residual = 0.00236347, Final residual = 2.09563e-09, No Iterations 3
DILUPBiCGStab:  Solving for h, Initial residual = 0.00263986, Final residual = 2.00157e-09, No Iterations 3
min/max(T) = 299.638, 1044.98
GAMGPCG:  Solving for p_rgh, Initial residual = 0.0174689, Final residual = 1.75001e-07, No Iterations 5
diagonal:  Solving for rho, Initial residual = 0, Final residual = 0, No Iterations 0
time step continuity errors : sum local = 7.43643e-09, global = -4.50427e-10, cumulative = -2.37685e-07
GAMGPCG:  Solving for p_rgh, Initial residual = 0.00257115, Final residual = 4.64132e-07, No Iterations 4
diagonal:  Solving for rho, Initial residual = 0, Final residual = 0, No Iterations 0
time step continuity errors : sum local = 1.86606e-08, global = 3.00813e-09, cumulative = -2.34677e-07
DILUPBiCGStab:  Solving for omega, Initial residual = 9.25055e-05, Final residual = 1.774e-09, No Iterations 2
DILUPBiCGStab:  Solving for k, Initial residual = 0.00415081, Final residual = 3.79326e-09, No Iterations 3

ExecutionTime = 2.67 s  ClockTime = 2 s

    Overall     = 0.00128454, 0.01
Time = 270

diagonal:  Solving for rho, Initial residual = 0, Final residual = 0, No Iterations 0

Execution time for mesh.update() = 0 s

DILUPBiCGStab:  Solving for Ux, Initial residual = 0.0040162, Final residual = 5.62127e-09, No Iterations 3
DILUPBiCGStab:  Solving for Uy, Initial residual = 0.00889715, Final residual = 1.30443e-09, No Iterations 3
GAMGPCG:  Solving for G, Initial residual = 0.106554, Final residual = 5.64004e-05, No Iterations 5
DILUPBiCGStab:  Solving for O2, Initial residual = 0.00235661, Final residual = 2.08782e-09, No Iterations 3
DILUPBiCGStab:  Solving for H2O, Initial residual = 0.00235675, Final residual = 2.08759e-09, No Iterations 3
DILUPBiCGStab:  Solving for CH4, Initial residual = 0, Final residual = 0, No Iterations 0
DILUPBiCGStab:  Solving for CO2, Initial residual = 0.00235675, Final residual = 2.08759e-09, No Iterations 3
DILUPBiCGStab:  Solving for h, Initial residual = 0.00263194, Final residual = 2.00318e-09, No Iterations 3
min/max(T) = 299.635, 1044.98
GAMGPCG:  Solving for p_rgh, Initial residual = 0.0173607, Final residual = 1.6915e-07, No Iterations 5
diagonal:  Solving for rho, Initial residual = 0, Final residual = 0, No Iterations 0
time step continuity errors : sum local = 7.27781e-09, global = -2.77075e-10, cumulative = -2.34954e-07
GAMGPCG:  Solving for p_rgh, Initial residual = 0.00256111, Final residual = 4.51175e-07, No Iterations 4
diagonal:  Solving for rho, Initial residual = 0, Final residual = 0, No Iterations 0
time step continuity errors : sum local = 1.82305e-08, global = 2.76499e-09, cumulative = -2.32189e-07
DILUPBiCGStab:  Solving for omega, Initial residual = 9.21586e-05, Final residual = 1.80819e-09, No Iterations 2
DILUPBiCGStab:  Solving for k, Initial residual = 0.00415438, Final residual = 3.1525e-09, No Iterations 3

ExecutionTime = 2.92 s  ClockTime = 3 s

    Overall     = 0.00128664, 0.01
Time = 271

diagonal:  Solving for rho, Initial residual = 0, Final residual = 0, No Iterations 0

Execution time for mesh.update() = 0 s

DILUPBiCGStab:  Solving for Ux, Initial residual = 0.00400731, Final residual = 5.55645e-09, No Iterations 3
DILUPBiCGStab:  Solving for Uy, Initial residual = 0.00889385, Final residual = 1.18737e-09, No Iterations 3
DILUPBiCGStab:  Solving for O2, Initial residual = 0.00234799, Final residual = 2.28151e-09, No Iterations 3
DILUPBiCGStab:  Solving for H2O, Initial residual = 0.00234829, Final residual = 2.2819e-09, No Iterations 3
DILUPBiCGStab:  Solving for CH4, Initial residual = 0, Final residual = 0, No Iterations 0
DILUPBiCGStab:  Solving for CO2, Initial residual = 0.00234829, Final residual = 2.2819e-09, No Iterations 3
DILUPBiCGStab:  Solving for h, Initial residual = 0.00262406, Final residual = 2.03808e-09, No Iterations 3
min/max(T) = 299.625, 1044.98
GAMGPCG:  Solving for p_rgh, Initial residual = 0.0175381, Final residual = 1.56932e-07, No Iterations 5
diagonal:  Solving for rho, Initial residual = 0, Final residual = 0, No Iterations 0
time step continuity errors : sum local = 6.78901e-09, global = -5.27755e-10, cumulative = -2.32717e-07
GAMGPCG:  Solving for p_rgh, Initial residual = 0.00257612, Final residual = 4.47898e-07, No Iterations 4
diagonal:  Solving for rho, Initial residual = 0, Final residual = 0, No Iterations 0
time step continuity errors : sum local = 1.80855e-08, global = 2.52563e-09, cumulative = -2.30191e-07
DILUPBiCGStab:  Solving for omega, Initial residual = 9.211e-05, Final residual = 1.84704e-09, No Iterations 2
DILUPBiCGStab:  Solving for k, Initial residual = 0.00415173, Final residual = 2.83674e-09, No Iterations 3

ExecutionTime = 3.04 s  ClockTime = 3 s

    Overall     = 0.00128619, 0.01
Time = 272

diagonal:  Solving for rho, Initial residual = 0, Final residual = 0, No Iterations 0

Execution time for mesh.update() = 0 s

DILUPBiCGStab:  Solving for Ux, Initial residual = 0.00399425, Final residual = 5.75098e-09, No Iterations 3
DILUPBiCGStab:  Solving for Uy, Initial residual = 0.00888526, Final residual = 1.1641e-09, No Iterations 3
DILUPBiCGStab:  Solving for O2, Initial residual = 0.00234093, Final residual = 2.34991e-09, No Iterations 3
DILUPBiCGStab:  Solving for H2O, Initial residual = 0.00234107, Final residual = 2.34951e-09, No Iterations 3
DILUPBiCGStab:  Solving for CH4, Initial residual = 0, Final residual = 0, No Iterations 0
DILUPBiCGStab:  Solving for CO2, Initial residual = 0.00234107, Final residual = 2.34951e-09, No Iterations 3
DILUPBiCGStab:  Solving for h, Initial residual = 0.00262041, Final residual = 2.07527e-09, No Iterations 3
min/max(T) = 299.62, 1044.98
GAMGPCG:  Solving for p_rgh, Initial residual = 0.0174411, Final residual = 1.5561e-07, No Iterations 5
diagonal:  Solving for rho, Initial residual = 0, Final residual = 0, No Iterations 0
time step continuity errors : sum local = 6.73746e-09, global = -4.24063e-10, cumulative = -2.30615e-07
GAMGPCG:  Solving for p_rgh, Initial residual = 0.00254256, Final residual = 4.53979e-07, No Iterations 4
diagonal:  Solving for rho, Initial residual = 0, Final residual = 0, No Iterations 0
time step continuity errors : sum local = 1.83284e-08, global = 2.02987e-09, cumulative = -2.28585e-07
DILUPBiCGStab:  Solving for omega, Initial residual = 9.18745e-05, Final residual = 1.93791e-09, No Iterations 2
bounding omega, min: -0.136495 max: 15626.3 average: 295.437
DILUPBiCGStab:  Solving for k, Initial residual = 0.00414922, Final residual = 2.64914e-09, No Iterations 3

ExecutionTime = 3.16 s  ClockTime = 3 s

    Overall     = 0.00128857, 0.01
Time = 273

diagonal:  Solving for rho, Initial residual = 0, Final residual = 0, No Iterations 0

Execution time for mesh.update() = 0 s

DILUPBiCGStab:  Solving for Ux, Initial residual = 0.00398493, Final residual = 5.53591e-09, No Iterations 3
DILUPBiCGStab:  Solving for Uy, Initial residual = 0.0088883, Final residual = 1.11773e-09, No Iterations 3
DILUPBiCGStab:  Solving for O2, Initial residual = 0.00233087, Final residual = 2.44097e-09, No Iterations 3
DILUPBiCGStab:  Solving for H2O, Initial residual = 0.00233131, Final residual = 2.44173e-09, No Iterations 3
DILUPBiCGStab:  Solving for CH4, Initial residual = 0, Final residual = 0, No Iterations 0
DILUPBiCGStab:  Solving for CO2, Initial residual = 0.00233131, Final residual = 2.44173e-09, No Iterations 3
DILUPBiCGStab:  Solving for h, Initial residual = 0.002608, Final residual = 2.12951e-09, No Iterations 3
min/max(T) = 299.608, 1044.98
GAMGPCG:  Solving for p_rgh, Initial residual = 0.0173502, Final residual = 1.28381e-07, No Iterations 5
diagonal:  Solving for rho, Initial residual = 0, Final residual = 0, No Iterations 0
time step continuity errors : sum local = 5.65469e-09, global = -4.68449e-10, cumulative = -2.29054e-07
GAMGPCG:  Solving for p_rgh, Initial residual = 0.00257538, Final residual = 4.58645e-07, No Iterations 4
diagonal:  Solving for rho, Initial residual = 0, Final residual = 0, No Iterations 0
time step continuity errors : sum local = 1.84798e-08, global = 1.88061e-09, cumulative = -2.27173e-07
DILUPBiCGStab:  Solving for omega, Initial residual = 9.12454e-05, Final residual = 1.94915e-09, No Iterations 2
DILUPBiCGStab:  Solving for k, Initial residual = 0.00414804, Final residual = 3.04462e-09, No Iterations 3

ExecutionTime = 3.28 s  ClockTime = 3 s

    Overall     = 0.00128827, 0.01
Time = 274

diagonal:  Solving for rho, Initial residual = 0, Final residual = 0, No Iterations 0

Execution time for mesh.update() = 0 s

DILUPBiCGStab:  Solving for Ux, Initial residual = 0.00397544, Final residual = 5.71163e-09, No Iterations 3
DILUPBiCGStab:  Solving for Uy, Initial residual = 0.00887733, Final residual = 1.09464e-09, No Iterations 3
DILUPBiCGStab:  Solving for O2, Initial residual = 0.00232847, Final residual = 2.37787e-09, No Iterations 3
DILUPBiCGStab:  Solving for H2O, Initial residual = 0.00232847, Final residual = 2.37703e-09, No Iterations 3
DILUPBiCGStab:  Solving for CH4, Initial residual = 0, Final residual = 0, No Iterations 0
DILUPBiCGStab:  Solving for CO2, Initial residual = 0.00232847, Final residual = 2.37703e-09, No Iterations 3
DILUPBiCGStab:  Solving for h, Initial residual = 0.00260877, Final residual = 2.22899e-09, No Iterations 3
min/max(T) = 299.599, 1044.98
GAMGPCG:  Solving for p_rgh, Initial residual = 0.0174667, Final residual = 1.37664e-07, No Iterations 5
diagonal:  Solving for rho, Initial residual = 0, Final residual = 0, No Iterations 0
time step continuity errors : sum local = 6.11219e-09, global = -2.70021e-10, cumulative = -2.27443e-07
GAMGPCG:  Solving for p_rgh, Initial residual = 0.00257402, Final residual = 4.49373e-07, No Iterations 4
diagonal:  Solving for rho, Initial residual = 0, Final residual = 0, No Iterations 0
time step continuity errors : sum local = 1.8111e-08, global = 1.38201e-09, cumulative = -2.26061e-07
DILUPBiCGStab:  Solving for omega, Initial residual = 9.18634e-05, Final residual = 1.88926e-09, No Iterations 2
bounding omega, min: -2.15945 max: 15624.5 average: 295.451
DILUPBiCGStab:  Solving for k, Initial residual = 0.00413481, Final residual = 5.49527e-09, No Iterations 3

ExecutionTime = 3.4 s  ClockTime = 3 s

    Overall     = 0.00129101, 0.01
Time = 275

diagonal:  Solving for rho, Initial residual = 0, Final residual = 0, No Iterations 0

Execution time for mesh.update() = 0 s

DILUPBiCGStab:  Solving for Ux, Initial residual = 0.00396293, Final residual = 5.89749e-09, No Iterations 3
DILUPBiCGStab:  Solving for Uy, Initial residual = 0.00887829, Final residual = 1.22042e-09, No Iterations 3
DILUPBiCGStab:  Solving for O2, Initial residual = 0.00232133, Final residual = 2.51005e-09, No Iterations 3
DILUPBiCGStab:  Solving for H2O, Initial residual = 0.00232179, Final residual = 2.51077e-09, No Iterations 3
DILUPBiCGStab:  Solving for CH4, Initial residual = 0, Final residual = 0, No Iterations 0
DILUPBiCGStab:  Solving for CO2, Initial residual = 0.00232179, Final residual = 2.51077e-09, No Iterations 3
DILUPBiCGStab:  Solving for h, Initial residual = 0.00260416, Final residual = 2.22725e-09, No Iterations 3
min/max(T) = 299.587, 1044.98
GAMGPCG:  Solving for p_rgh, Initial residual = 0.0176181, Final residual = 1.34313e-07, No Iterations 5
diagonal:  Solving for rho, Initial residual = 0, Final residual = 0, No Iterations 0
time step continuity errors : sum local = 5.92124e-09, global = -1.8978e-10, cumulative = -2.26251e-07
GAMGPCG:  Solving for p_rgh, Initial residual = 0.00264852, Final residual = 4.53021e-07, No Iterations 4
diagonal:  Solving for rho, Initial residual = 0, Final residual = 0, No Iterations 0
time step continuity errors : sum local = 1.82456e-08, global = 1.27915e-09, cumulative = -2.24972e-07
DILUPBiCGStab:  Solving for omega, Initial residual = 9.13384e-05, Final residual = 1.73904e-09, No Iterations 2
DILUPBiCGStab:  Solving for k, Initial residual = 0.00412649, Final residual = 5.67531e-09, No Iterations 3

ExecutionTime = 3.52 s  ClockTime = 3 s

    Overall     = 0.00129086, 0.01
Time = 276

diagonal:  Solving for rho, Initial residual = 0, Final residual = 0, No Iterations 0

Execution time for mesh.update() = 0 s

DILUPBiCGStab:  Solving for Ux, Initial residual = 0.00395551, Final residual = 6.64842e-09, No Iterations 3
DILUPBiCGStab:  Solving for Uy, Initial residual = 0.00885486, Final residual = 1.30042e-09, No Iterations 3
DILUPBiCGStab:  Solving for O2, Initial residual = 0.00231028, Final residual = 2.28867e-09, No Iterations 3
DILUPBiCGStab:  Solving for H2O, Initial residual = 0.0023104, Final residual = 2.28812e-09, No Iterations 3
DILUPBiCGStab:  Solving for CH4, Initial residual = 0, Final residual = 0, No Iterations 0
DILUPBiCGStab:  Solving for CO2, Initial residual = 0.0023104, Final residual = 2.28812e-09, No Iterations 3
DILUPBiCGStab:  Solving for h, Initial residual = 0.00259003, Final residual = 2.09542e-09, No Iterations 3
min/max(T) = 299.575, 1044.98
GAMGPCG:  Solving for p_rgh, Initial residual = 0.0172123, Final residual = 1.31693e-07, No Iterations 5
diagonal:  Solving for rho, Initial residual = 0, Final residual = 0, No Iterations 0
time step continuity errors : sum local = 5.86232e-09, global = 1.49432e-10, cumulative = -2.24822e-07
GAMGPCG:  Solving for p_rgh, Initial residual = 0.00260856, Final residual = 4.08132e-07, No Iterations 4
diagonal:  Solving for rho, Initial residual = 0, Final residual = 0, No Iterations 0
time step continuity errors : sum local = 1.65647e-08, global = 7.95362e-10, cumulative = -2.24027e-07
DILUPBiCGStab:  Solving for omega, Initial residual = 8.92865e-05, Final residual = 1.65629e-09, No Iterations 2
DILUPBiCGStab:  Solving for k, Initial residual = 0.00412442, Final residual = 5.0904e-09, No Iterations 3

ExecutionTime = 3.64 s  ClockTime = 3 s

    Overall     = 0.00129389, 0.01
Time = 277

diagonal:  Solving for rho, Initial residual = 0, Final residual = 0, No Iterations 0

Execution time for mesh.update() = 0 s

DILUPBiCGStab:  Solving for Ux, Initial residual = 0.0039607, Final residual = 6.83114e-09, No Iterations 3
DILUPBiCGStab:  Solving for Uy, Initial residual = 0.00885879, Final residual = 1.35755e-09, No Iterations 3
DILUPBiCGStab:  Solving for O2, Initial residual = 0.00230282, Final residual = 2.15789e-09, No Iterations 3
DILUPBiCGStab:  Solving for H2O, Initial residual = 0.00230305, Final residual = 2.15786e-09, No Iterations 3
DILUPBiCGStab:  Solving for CH4, Initial residual = 0, Final residual = 0, No Iterations 0
DILUPBiCGStab:  Solving for CO2, Initial residual = 0.00230305, Final residual = 2.15786e-09, No Iterations 3
DILUPBiCGStab:  Solving for h, Initial residual = 0.0025834, Final residual = 2.03089e-09, No Iterations 3
min/max(T) = 299.562, 1044.98
GAMGPCG:  Solving for p_rgh, Initial residual = 0.0172251, Final residual = 1.34617e-07, No Iterations 5
diagonal:  Solving for rho, Initial residual = 0, Final residual = 0, No Iterations 0
time step continuity errors : sum local = 5.8997e-09, global = 2.03363e-10, cumulative = -2.23824e-07
GAMGPCG:  Solving for p_rgh, Initial residual = 0.00260146, Final residual = 4.10824e-07, No Iterations 4
diagonal:  Solving for rho, Initial residual = 0, Final residual = 0, No Iterations 0
time step continuity errors : sum local = 1.66659e-08, global = 7.64339e-10, cumulative = -2.23059e-07
DILUPBiCGStab:  Solving for omega, Initial residual = 8.8338e-05, Final residual = 1.58555e-09, No Iterations 2
DILUPBiCGStab:  Solving for k, Initial residual = 0.00411909, Final residual = 1.05071e-09, No Iterations 3

ExecutionTime = 3.76 s  ClockTime = 3 s

    Overall     = 0.00129373, 0.01
Time = 278

diagonal:  Solving for rho, Initial residual = 0, Final residual = 0, No Iterations 0

Execution time for mesh.update() = 0 s

DILUPBiCGStab:  Solving for Ux, Initial residual = 0.00394736, Final residual = 6.7925e-09, No Iterations 3
DILUPBiCGStab:  Solving for Uy, Initial residual = 0.00884997, Final residual = 1.36525e-09, No Iterations 3
DILUPBiCGStab:  Solving for O2, Initial residual = 0.00229601, Final residual = 2.0602e-09, No Iterations 3
DILUPBiCGStab:  Solving for H2O, Initial residual = 0.00229607, Final residual = 2.0603e-09, No Iterations 3
DILUPBiCGStab:  Solving for CH4, Initial residual = 0, Final residual = 0, No Iterations 0
DILUPBiCGStab:  Solving for CO2, Initial residual = 0.00229607, Final residual = 2.0603e-09, No Iterations 3
DILUPBiCGStab:  Solving for h, Initial residual = 0.00257846, Final residual = 1.77853e-09, No Iterations 3
min/max(T) = 299.547, 1044.98
GAMGPCG:  Solving for p_rgh, Initial residual = 0.0171455, Final residual = 1.39072e-07, No Iterations 5
diagonal:  Solving for rho, Initial residual = 0, Final residual = 0, No Iterations 0
time step continuity errors : sum local = 6.09232e-09, global = 5.05983e-10, cumulative = -2.22553e-07
GAMGPCG:  Solving for p_rgh, Initial residual = 0.00256488, Final residual = 3.78035e-07, No Iterations 4
diagonal:  Solving for rho, Initial residual = 0, Final residual = 0, No Iterations 0
time step continuity errors : sum local = 1.54977e-08, global = 4.50433e-10, cumulative = -2.22103e-07
DILUPBiCGStab:  Solving for omega, Initial residual = 8.79031e-05, Final residual = 1.63371e-09, No Iterations 2
DILUPBiCGStab:  Solving for k, Initial residual = 0.00409507, Final residual = 5.77572e-09, No Iterations 3

ExecutionTime = 3.88 s  ClockTime = 3 s

    Overall     = 0.001297, 0.01
Time = 279

diagonal:  Solving for rho, Initial residual = 0, Final residual = 0, No Iterations 0

Execution time for mesh.update() = 0 s

DILUPBiCGStab:  Solving for Ux, Initial residual = 0.00394353, Final residual = 6.35528e-09, No Iterations 3
DILUPBiCGStab:  Solving for Uy, Initial residual = 0.00885693, Final residual = 1.31894e-09, No Iterations 3
DILUPBiCGStab:  Solving for O2, Initial residual = 0.00228963, Final residual = 2.27274e-09, No Iterations 3
DILUPBiCGStab:  Solving for H2O, Initial residual = 0.00228989, Final residual = 2.27226e-09, No Iterations 3
DILUPBiCGStab:  Solving for CH4, Initial residual = 0, Final residual = 0, No Iterations 0
DILUPBiCGStab:  Solving for CO2, Initial residual = 0.00228989, Final residual = 2.27226e-09, No Iterations 3
DILUPBiCGStab:  Solving for h, Initial residual = 0.00257098, Final residual = 1.99036e-09, No Iterations 3
min/max(T) = 299.533, 1044.98
GAMGPCG:  Solving for p_rgh, Initial residual = 0.0172118, Final residual = 1.44633e-07, No Iterations 5
diagonal:  Solving for rho, Initial residual = 0, Final residual = 0, No Iterations 0
time step continuity errors : sum local = 6.279e-09, global = 6.00407e-10, cumulative = -2.21503e-07
GAMGPCG:  Solving for p_rgh, Initial residual = 0.00262376, Final residual = 3.87555e-07, No Iterations 4
diagonal:  Solving for rho, Initial residual = 0, Final residual = 0, No Iterations 0
time step continuity errors : sum local = 1.58143e-08, global = 2.71092e-10, cumulative = -2.21231e-07
DILUPBiCGStab:  Solving for omega, Initial residual = 8.70246e-05, Final residual = 1.66496e-09, No Iterations 2
DILUPBiCGStab:  Solving for k, Initial residual = 0.00408308, Final residual = 2.18617e-09, No Iterations 3

ExecutionTime = 4 s  ClockTime = 4 s

    Overall     = 0.00129666, 0.01
Time = 280

diagonal:  Solving for rho, Initial residual = 0, Final residual = 0, No Iterations 0

Execution time for mesh.update() = 0 s

DILUPBiCGStab:  Solving for Ux, Initial residual = 0.00393251, Final residual = 6.21104e-09, No Iterations 3
DILUPBiCGStab:  Solving for Uy, Initial residual = 0.00885027, Final residual = 1.34423e-09, No Iterations 3
GAMGPCG:  Solving for G, Initial residual = 0.106549, Final residual = 4.23519e-05, No Iterations 5
DILUPBiCGStab:  Solving for O2, Initial residual = 0.0022819, Final residual = 2.05752e-09, No Iterations 3
DILUPBiCGStab:  Solving for H2O, Initial residual = 0.00228197, Final residual = 2.05791e-09, No Iterations 3
DILUPBiCGStab:  Solving for CH4, Initial residual = 0, Final residual = 0, No Iterations 0
DILUPBiCGStab:  Solving for CO2, Initial residual = 0.00228197, Final residual = 2.05791e-09, No Iterations 3
DILUPBiCGStab:  Solving for h, Initial residual = 0.00255996, Final residual = 1.84325e-09, No Iterations 3
min/max(T) = 299.517, 1044.98
GAMGPCG:  Solving for p_rgh, Initial residual = 0.0170919, Final residual = 1.57741e-07, No Iterations 5
diagonal:  Solving for rho, Initial residual = 0, Final residual = 0, No Iterations 0
time step continuity errors : sum local = 6.88849e-09, global = 7.29776e-10, cumulative = -2.20502e-07
GAMGPCG:  Solving for p_rgh, Initial residual = 0.00257004, Final residual = 3.76687e-07, No Iterations 4
diagonal:  Solving for rho, Initial residual = 0, Final residual = 0, No Iterations 0
time step continuity errors : sum local = 1.55741e-08, global = 2.21107e-10, cumulative = -2.20281e-07
DILUPBiCGStab:  Solving for omega, Initial residual = 8.6972e-05, Final residual = 1.66176e-09, No Iterations 2
DILUPBiCGStab:  Solving for k, Initial residual = 0.004064, Final residual = 2.092e-09, No Iterations 3

ExecutionTime = 4.26 s  ClockTime = 4 s

    Overall     = 0.00129996, 0.01
Time = 281

diagonal:  Solving for rho, Initial residual = 0, Final residual = 0, No Iterations 0

Execution time for mesh.update() = 0 s

DILUPBiCGStab:  Solving for Ux, Initial residual = 0.00393007, Final residual = 5.60508e-09, No Iterations 3
DILUPBiCGStab:  Solving for Uy, Initial residual = 0.00886238, Final residual = 1.19715e-09, No Iterations 3
DILUPBiCGStab:  Solving for O2, Initial residual = 0.00227442, Final residual = 2.05443e-09, No Iterations 3
DILUPBiCGStab:  Solving for H2O, Initial residual = 0.00227498, Final residual = 2.0542e-09, No Iterations 3
DILUPBiCGStab:  Solving for CH4, Initial residual = 0, Final residual = 0, No Iterations 0
DILUPBiCGStab:  Solving for CO2, Initial residual = 0.00227498, Final residual = 2.0542e-09, No Iterations 3
DILUPBiCGStab:  Solving for h, Initial residual = 0.00255398, Final residual = 2.00437e-09, No Iterations 3
min/max(T) = 299.504, 1044.98
GAMGPCG:  Solving for p_rgh, Initial residual = 0.0172229, Final residual = 1.70193e-07, No Iterations 5
diagonal:  Solving for rho, Initial residual = 0, Final residual = 0, No Iterations 0
time step continuity errors : sum local = 7.38795e-09, global = 7.57752e-10, cumulative = -2.19523e-07
GAMGPCG:  Solving for p_rgh, Initial residual = 0.00259943, Final residual = 4.0324e-07, No Iterations 4
diagonal:  Solving for rho, Initial residual = 0, Final residual = 0, No Iterations 0
time step continuity errors : sum local = 1.6696e-08, global = 3.90726e-10, cumulative = -2.19132e-07
DILUPBiCGStab:  Solving for omega, Initial residual = 8.65844e-05, Final residual = 1.67803e-09, No Iterations 2
DILUPBiCGStab:  Solving for k, Initial residual = 0.00405103, Final residual = 2.17728e-09, No Iterations 3

ExecutionTime = 4.38 s  ClockTime = 4 s

    Overall     = 0.00129904, 0.01
Time = 282

diagonal:  Solving for rho, Initial residual = 0, Final residual = 0, No Iterations 0

Execution time for mesh.update() = 0 s

DILUPBiCGStab:  Solving for Ux, Initial residual = 0.00392241, Final residual = 5.77182e-09, No Iterations 3
DILUPBiCGStab:  Solving for Uy, Initial residual = 0.00884546, Final residual = 1.25851e-09, No Iterations 3
DILUPBiCGStab:  Solving for O2, Initial residual = 0.00226457, Final residual = 2.03848e-09, No Iterations 3
DILUPBiCGStab:  Solving for H2O, Initial residual = 0.00226465, Final residual = 2.0386e-09, No Iterations 3
DILUPBiCGStab:  Solving for CH4, Initial residual = 0, Final residual = 0, No Iterations 0
DILUPBiCGStab:  Solving for CO2, Initial residual = 0.00226465, Final residual = 2.0386e-09, No Iterations 3
DILUPBiCGStab:  Solving for h, Initial residual = 0.00254347, Final residual = 2.1189e-09, No Iterations 3
min/max(T) = 299.487, 1044.98
GAMGPCG:  Solving for p_rgh, Initial residual = 0.0171119, Final residual = 1.97958e-07, No Iterations 5
diagonal:  Solving for rho, Initial residual = 0, Final residual = 0, No Iterations 0
time step continuity errors : sum local = 8.57527e-09, global = 1.0792e-09, cumulative = -2.18053e-07
GAMGPCG:  Solving for p_rgh, Initial residual = 0.00257871, Final residual = 3.91373e-07, No Iterations 4
diagonal:  Solving for rho, Initial residual = 0, Final residual = 0, No Iterations 0
time step continuity errors : sum local = 1.6279e-08, global = 9.39901e-11, cumulative = -2.17959e-07
DILUPBiCGStab:  Solving for omega, Initial residual = 8.68612e-05, Final residual = 1.70683e-09, No Iterations 2
DILUPBiCGStab:  Solving for k, Initial residual = 0.00403806, Final residual = 2.29487e-09, No Iterations 3

ExecutionTime = 4.5 s  ClockTime = 4 s

    Overall     = 0.00130237, 0.01
Time = 283

diagonal:  Solving for rho, Initial residual = 0, Final residual = 0, No Iterations 0

Execution time for mesh.update() = 0 s

DILUPBiCGStab:  Solving for Ux, Initial residual = 0.00393378, Final residual = 5.93108e-09, No Iterations 3
DILUPBiCGStab:  Solving for Uy, Initial residual = 0.00886797, Final residual = 1.27219e-09, No Iterations 3
DILUPBiCGStab:  Solving for O2, Initial residual = 0.00226079, Final residual = 1.95676e-09, No Iterations 3
DILUPBiCGStab:  Solving for H2O, Initial residual = 0.00226137, Final residual = 1.95701e-09, No Iterations 3
DILUPBiCGStab:  Solving for CH4, Initial residual = 0, Final residual = 0, No Iterations 0
DILUPBiCGStab:  Solving for CO2, Initial residual = 0.00226137, Final residual = 1.95701e-09, No Iterations 3
DILUPBiCGStab:  Solving for h, Initial residual = 0.00253872, Final residual = 2.0235e-09, No Iterations 3
min/max(T) = 299.474, 1044.98
GAMGPCG:  Solving for p_rgh, Initial residual = 0.0173692, Final residual = 2.02375e-07, No Iterations 5
diagonal:  Solving for rho, Initial residual = 0, Final residual = 0, No Iterations 0
time step continuity errors : sum local = 8.7199e-09, global = 1.08631e-09, cumulative = -2.16873e-07
GAMGPCG:  Solving for p_rgh, Initial residual = 0.00264373, Final residual = 4.19339e-07, No Iterations 4
diagonal:  Solving for rho, Initial residual = 0, Final residual = 0, No Iterations 0
time step continuity errors : sum local = 1.7544e-08, global = 2.42515e-10, cumulative = -2.1663e-07
DILUPBiCGStab:  Solving for omega, Initial residual = 8.63658e-05, Final residual = 1.76819e-09, No Iterations 2
DILUPBiCGStab:  Solving for k, Initial residual = 0.00402614, Final residual = 2.51538e-09, No Iterations 3

ExecutionTime = 4.62 s  ClockTime = 4 s

    Overall     = 0.00130059, 0.01
Time = 284

diagonal:  Solving for rho, Initial residual = 0, Final residual = 0, No Iterations 0

Execution time for mesh.update() = 0 s

DILUPBiCGStab:  Solving for Ux, Initial residual = 0.00392524, Final residual = 5.59649e-09, No Iterations 3
DILUPBiCGStab:  Solving for Uy, Initial residual = 0.008833, Final residual = 1.32636e-09, No Iterations 3
DILUPBiCGStab:  Solving for O2, Initial residual = 0.00225069, Final residual = 2.08097e-09, No Iterations 3
DILUPBiCGStab:  Solving for H2O, Initial residual = 0.00225079, Final residual = 2.08048e-09, No Iterations 3
DILUPBiCGStab:  Solving for CH4, Initial residual = 0, Final residual = 0, No Iterations 0
DILUPBiCGStab:  Solving for CO2, Initial residual = 0.00225079, Final residual = 2.08048e-09, No Iterations 3
DILUPBiCGStab:  Solving for h, Initial residual = 0.00252516, Final residual = 2.14159e-09, No Iterations 3
min/max(T) = 299.457, 1044.98
GAMGPCG:  Solving for p_rgh, Initial residual = 0.0168178, Final residual = 2.2568e-07, No Iterations 5
diagonal:  Solving for rho, Initial residual = 0, Final residual = 0, No Iterations 0
time step continuity errors : sum local = 9.69379e-09, global = 1.04307e-09, cumulative = -2.15587e-07
GAMGPCG:  Solving for p_rgh, Initial residual = 0.0025889, Final residual = 4.22825e-07, No Iterations 4
diagonal:  Solving for rho, Initial residual = 0, Final residual = 0, No Iterations 0
time step continuity errors : sum local = 1.75036e-08, global = -5.52851e-11, cumulative = -2.15642e-07
DILUPBiCGStab:  Solving for omega, Initial residual = 8.65519e-05, Final residual = 1.83197e-09, No Iterations 2
DILUPBiCGStab:  Solving for k, Initial residual = 0.00400974, Final residual = 2.62493e-09, No Iterations 3

ExecutionTime = 4.74 s  ClockTime = 4 s

    Overall     = 0.00130409, 0.01
Time = 285

diagonal:  Solving for rho, Initial residual = 0, Final residual = 0, No Iterations 0

Execution time for mesh.update() = 0 s

DILUPBiCGStab:  Solving for Ux, Initial residual = 0.00392081, Final residual = 5.8353e-09, No Iterations 3
DILUPBiCGStab:  Solving for Uy, Initial residual = 0.00883808, Final residual = 1.26374e-09, No Iterations 3
DILUPBiCGStab:  Solving for O2, Initial residual = 0.00224378, Final residual = 1.99635e-09, No Iterations 3
DILUPBiCGStab:  Solving for H2O, Initial residual = 0.00224439, Final residual = 1.99729e-09, No Iterations 3
DILUPBiCGStab:  Solving for CH4, Initial residual = 0, Final residual = 0, No Iterations 0
DILUPBiCGStab:  Solving for CO2, Initial residual = 0.00224439, Final residual = 1.99729e-09, No Iterations 3
DILUPBiCGStab:  Solving for h, Initial residual = 0.00251657, Final residual = 2.17498e-09, No Iterations 3
min/max(T) = 299.447, 1044.98
GAMGPCG:  Solving for p_rgh, Initial residual = 0.0169217, Final residual = 1.91446e-07, No Iterations 5
diagonal:  Solving for rho, Initial residual = 0, Final residual = 0, No Iterations 0
time step continuity errors : sum local = 8.27167e-09, global = 7.75701e-10, cumulative = -2.14867e-07
GAMGPCG:  Solving for p_rgh, Initial residual = 0.00261629, Final residual = 4.32368e-07, No Iterations 4
diagonal:  Solving for rho, Initial residual = 0, Final residual = 0, No Iterations 0
time step continuity errors : sum local = 1.79647e-08, global = -2.01446e-10, cumulative = -2.15068e-07
DILUPBiCGStab:  Solving for omega, Initial residual = 8.62441e-05, Final residual = 1.81352e-09, No Iterations 2
DILUPBiCGStab:  Solving for k, Initial residual = 0.00399255, Final residual = 2.88719e-09, No Iterations 3

ExecutionTime = 4.85 s  ClockTime = 4 s

    Overall     = 0.00130147, 0.01
Time = 286

diagonal:  Solving for rho, Initial residual = 0, Final residual = 0, No Iterations 0

Execution time for mesh.update() = 0 s

DILUPBiCGStab:  Solving for Ux, Initial residual = 0.00391408, Final residual = 6.08977e-09, No Iterations 3
DILUPBiCGStab:  Solving for Uy, Initial residual = 0.00877875, Final residual = 1.28751e-09, No Iterations 3
DILUPBiCGStab:  Solving for O2, Initial residual = 0.00223399, Final residual = 2.07416e-09, No Iterations 3
DILUPBiCGStab:  Solving for H2O, Initial residual = 0.00223411, Final residual = 2.0727e-09, No Iterations 3
DILUPBiCGStab:  Solving for CH4, Initial residual = 0, Final residual = 0, No Iterations 0
DILUPBiCGStab:  Solving for CO2, Initial residual = 0.00223411, Final residual = 2.0727e-09, No Iterations 3
DILUPBiCGStab:  Solving for h, Initial residual = 0.00250591, Final residual = 2.30886e-09, No Iterations 3
min/max(T) = 299.427, 1044.98
GAMGPCG:  Solving for p_rgh, Initial residual = 0.0169256, Final residual = 1.99302e-07, No Iterations 5
diagonal:  Solving for rho, Initial residual = 0, Final residual = 0, No Iterations 0
time step continuity errors : sum local = 8.60328e-09, global = 6.62249e-10, cumulative = -2.14406e-07
GAMGPCG:  Solving for p_rgh, Initial residual = 0.0025587, Final residual = 4.38012e-07, No Iterations 4
diagonal:  Solving for rho, Initial residual = 0, Final residual = 0, No Iterations 0
time step continuity errors : sum local = 1.79709e-08, global = -4.4994e-10, cumulative = -2.14856e-07
DILUPBiCGStab:  Solving for omega, Initial residual = 8.65591e-05, Final residual = 1.67728e-09, No Iterations 2
DILUPBiCGStab:  Solving for k, Initial residual = 0.00397737, Final residual = 3.03604e-09, No Iterations 3

ExecutionTime = 4.97 s  ClockTime = 5 s

    Overall     = 0.00130484, 0.01
Time = 287

diagonal:  Solving for rho, Initial residual = 0, Final residual = 0, No Iterations 0

Execution time for mesh.update() = 0 s

DILUPBiCGStab:  Solving for Ux, Initial residual = 0.00391241, Final residual = 5.16502e-09, No Iterations 3
DILUPBiCGStab:  Solving for Uy, Initial residual = 0.008792, Final residual = 1.24773e-09, No Iterations 3
DILUPBiCGStab:  Solving for O2, Initial residual = 0.00222816, Final residual = 1.46005e-09, No Iterations 3
DILUPBiCGStab:  Solving for H2O, Initial residual = 0.00222879, Final residual = 1.46022e-09, No Iterations 3
DILUPBiCGStab:  Solving for CH4, Initial residual = 0, Final residual = 0, No Iterations 0
DILUPBiCGStab:  Solving for CO2, Initial residual = 0.00222879, Final residual = 1.46022e-09, No Iterations 3
DILUPBiCGStab:  Solving for h, Initial residual = 0.00249955, Final residual = 1.57156e-09, No Iterations 3
min/max(T) = 299.423, 1044.98
GAMGPCG:  Solving for p_rgh, Initial residual = 0.0169221, Final residual = 1.83165e-07, No Iterations 5
diagonal:  Solving for rho, Initial residual = 0, Final residual = 0, No Iterations 0
time step continuity errors : sum local = 7.90771e-09, global = 5.2913e-10, cumulative = -2.14327e-07
GAMGPCG:  Solving for p_rgh, Initial residual = 0.00259964, Final residual = 4.55856e-07, No Iterations 4
diagonal:  Solving for rho, Initial residual = 0, Final residual = 0, No Iterations 0
time step continuity errors : sum local = 1.86453e-08, global = -5.7496e-10, cumulative = -2.14902e-07
DILUPBiCGStab:  Solving for omega, Initial residual = 8.64313e-05, Final residual = 1.55541e-09, No Iterations 2
DILUPBiCGStab:  Solving for k, Initial residual = 0.00396144, Final residual = 1.39719e-09, No Iterations 3

ExecutionTime = 5.09 s  ClockTime = 5 s

    Overall     = 0.00130202, 0.01
Time = 288

diagonal:  Solving for rho, Initial residual = 0, Final residual = 0, No Iterations 0

Execution time for mesh.update() = 0 s

DILUPBiCGStab:  Solving for Ux, Initial residual = 0.00391728, Final residual = 5.67999e-09, No Iterations 3
DILUPBiCGStab:  Solving for Uy, Initial residual = 0.00876855, Final residual = 1.33843e-09, No Iterations 3
DILUPBiCGStab:  Solving for O2, Initial residual = 0.00222226, Final residual = 1.49339e-09, No Iterations 3
DILUPBiCGStab:  Solving for H2O, Initial residual = 0.00222238, Final residual = 1.49287e-09, No Iterations 3
DILUPBiCGStab:  Solving for CH4, Initial residual = 0, Final residual = 0, No Iterations 0
DILUPBiCGStab:  Solving for CO2, Initial residual = 0.00222238, Final residual = 1.49287e-09, No Iterations 3
DILUPBiCGStab:  Solving for h, Initial residual = 0.00249312, Final residual = 1.49239e-09, No Iterations 3
min/max(T) = 299.408, 1044.98
GAMGPCG:  Solving for p_rgh, Initial residual = 0.0168502, Final residual = 2.059e-07, No Iterations 5
diagonal:  Solving for rho, Initial residual = 0, Final residual = 0, No Iterations 0
time step continuity errors : sum local = 8.85289e-09, global = 3.04638e-10, cumulative = -2.14597e-07
GAMGPCG:  Solving for p_rgh, Initial residual = 0.00256957, Final residual = 4.64484e-07, No Iterations 4
diagonal:  Solving for rho, Initial residual = 0, Final residual = 0, No Iterations 0
time step continuity errors : sum local = 1.88482e-08, global = -4.86323e-10, cumulative = -2.15083e-07
DILUPBiCGStab:  Solving for omega, Initial residual = 8.72722e-05, Final residual = 1.46223e-09, No Iterations 2
bounding omega, min: -0.659282 max: 15628.2 average: 295.542
DILUPBiCGStab:  Solving for k, Initial residual = 0.00394298, Final residual = 6.90815e-09, No Iterations 3

ExecutionTime = 5.21 s  ClockTime = 5 s

    Overall     = 0.00130536, 0.01
Time = 289

diagonal:  Solving for rho, Initial residual = 0, Final residual = 0, No Iterations 0

Execution time for mesh.update() = 0 s

DILUPBiCGStab:  Solving for Ux, Initial residual = 0.00390471, Final residual = 5.57406e-09, No Iterations 3
DILUPBiCGStab:  Solving for Uy, Initial residual = 0.00875607, Final residual = 1.3114e-09, No Iterations 3
DILUPBiCGStab:  Solving for O2, Initial residual = 0.00221717, Final residual = 1.49781e-09, No Iterations 3
DILUPBiCGStab:  Solving for H2O, Initial residual = 0.00221782, Final residual = 1.49794e-09, No Iterations 3
DILUPBiCGStab:  Solving for CH4, Initial residual = 0, Final residual = 0, No Iterations 0
DILUPBiCGStab:  Solving for CO2, Initial residual = 0.00221782, Final residual = 1.49794e-09, No Iterations 3
DILUPBiCGStab:  Solving for h, Initial residual = 0.00248573, Final residual = 1.49647e-09, No Iterations 3
min/max(T) = 299.407, 1044.98
GAMGPCG:  Solving for p_rgh, Initial residual = 0.016683, Final residual = 1.84912e-07, No Iterations 5
diagonal:  Solving for rho, Initial residual = 0, Final residual = 0, No Iterations 0
time step continuity errors : sum local = 8.03202e-09, global = 2.43941e-10, cumulative = -2.14839e-07
GAMGPCG:  Solving for p_rgh, Initial residual = 0.00257328, Final residual = 4.9107e-07, No Iterations 4
diagonal:  Solving for rho, Initial residual = 0, Final residual = 0, No Iterations 0
time step continuity errors : sum local = 1.99971e-08, global = -7.07396e-10, cumulative = -2.15547e-07
DILUPBiCGStab:  Solving for omega, Initial residual = 8.68972e-05, Final residual = 1.47071e-09, No Iterations 2
DILUPBiCGStab:  Solving for k, Initial residual = 0.00393344, Final residual = 3.29499e-09, No Iterations 3

ExecutionTime = 5.33 s  ClockTime = 5 s

    Overall     = 0.00130202, 0.01
Time = 290

diagonal:  Solving for rho, Initial residual = 0, Final residual = 0, No Iterations 0

Execution time for mesh.update() = 0 s

DILUPBiCGStab:  Solving for Ux, Initial residual = 0.00391421, Final residual = 5.54262e-09, No Iterations 3
DILUPBiCGStab:  Solving for Uy, Initial residual = 0.00872462, Final residual = 1.37425e-09, No Iterations 3
GAMGPCG:  Solving for G, Initial residual = 0.112129, Final residual = 5.15503e-05, No Iterations 5
DILUPBiCGStab:  Solving for O2, Initial residual = 0.00220775, Final residual = 1.65495e-09, No Iterations 3
DILUPBiCGStab:  Solving for H2O, Initial residual = 0.0022081, Final residual = 1.65501e-09, No Iterations 3
DILUPBiCGStab:  Solving for CH4, Initial residual = 0, Final residual = 0, No Iterations 0
DILUPBiCGStab:  Solving for CO2, Initial residual = 0.0022081, Final residual = 1.65501e-09, No Iterations 3
DILUPBiCGStab:  Solving for h, Initial residual = 0.00247468, Final residual = 1.68472e-09, No Iterations 3
min/max(T) = 299.393, 1044.98
GAMGPCG:  Solving for p_rgh, Initial residual = 0.0165703, Final residual = 2.02432e-07, No Iterations 5
diagonal:  Solving for rho, Initial residual = 0, Final residual = 0, No Iterations 0
time step continuity errors : sum local = 8.76506e-09, global = 2.59182e-10, cumulative = -2.15288e-07
GAMGPCG:  Solving for p_rgh, Initial residual = 0.0025471, Final residual = 4.96456e-07, No Iterations 4
diagonal:  Solving for rho, Initial residual = 0, Final residual = 0, No Iterations 0
time step continuity errors : sum local = 2.01704e-08, global = -4.74961e-10, cumulative = -2.15762e-07
DILUPBiCGStab:  Solving for omega, Initial residual = 8.53854e-05, Final residual = 1.49074e-09, No Iterations 2
DILUPBiCGStab:  Solving for k, Initial residual = 0.00390765, Final residual = 4.29502e-09, No Iterations 3

ExecutionTime = 5.58 s  ClockTime = 5 s

    Overall     = 0.00130514, 0.01
Time = 291

diagonal:  Solving for rho, Initial residual = 0, Final residual = 0, No Iterations 0

Execution time for mesh.update() = 0 s

DILUPBiCGStab:  Solving for Ux, Initial residual = 0.00390375, Final residual = 5.84351e-09, No Iterations 3
DILUPBiCGStab:  Solving for Uy, Initial residual = 0.00867937, Final residual = 1.32037e-09, No Iterations 3
DILUPBiCGStab:  Solving for O2, Initial residual = 0.00220297, Final residual = 1.66303e-09, No Iterations 3
DILUPBiCGStab:  Solving for H2O, Initial residual = 0.00220363, Final residual = 1.66297e-09, No Iterations 3
DILUPBiCGStab:  Solving for CH4, Initial residual = 0, Final residual = 0, No Iterations 0
DILUPBiCGStab:  Solving for CO2, Initial residual = 0.00220363, Final residual = 1.66298e-09, No Iterations 3
DILUPBiCGStab:  Solving for h, Initial residual = 0.00246976, Final residual = 1.68749e-09, No Iterations 3
min/max(T) = 299.399, 1044.98
GAMGPCG:  Solving for p_rgh, Initial residual = 0.0169897, Final residual = 1.88643e-07, No Iterations 5
diagonal:  Solving for rho, Initial residual = 0, Final residual = 0, No Iterations 0
time step continuity errors : sum local = 8.19618e-09, global = 1.37009e-10, cumulative = -2.15625e-07
GAMGPCG:  Solving for p_rgh, Initial residual = 0.00252117, Final residual = 5.04527e-07, No Iterations 4
diagonal:  Solving for rho, Initial residual = 0, Final residual = 0, No Iterations 0
time step continuity errors : sum local = 2.05232e-08, global = -6.82465e-10, cumulative = -2.16308e-07
DILUPBiCGStab:  Solving for omega, Initial residual = 8.4891e-05, Final residual = 1.53689e-09, No Iterations 2
DILUPBiCGStab:  Solving for k, Initial residual = 0.00389173, Final residual = 2.18396e-09, No Iterations 3

ExecutionTime = 5.71 s  ClockTime = 5 s

    Overall     = 0.00130163, 0.01
Time = 292

diagonal:  Solving for rho, Initial residual = 0, Final residual = 0, No Iterations 0

Execution time for mesh.update() = 0 s

DILUPBiCGStab:  Solving for Ux, Initial residual = 0.00390834, Final residual = 5.68486e-09, No Iterations 3
DILUPBiCGStab:  Solving for Uy, Initial residual = 0.00864487, Final residual = 1.16079e-09, No Iterations 3
DILUPBiCGStab:  Solving for O2, Initial residual = 0.00219279, Final residual = 1.5426e-09, No Iterations 3
DILUPBiCGStab:  Solving for H2O, Initial residual = 0.00219296, Final residual = 1.54264e-09, No Iterations 3
DILUPBiCGStab:  Solving for CH4, Initial residual = 0, Final residual = 0, No Iterations 0
DILUPBiCGStab:  Solving for CO2, Initial residual = 0.00219296, Final residual = 1.54264e-09, No Iterations 3
DILUPBiCGStab:  Solving for h, Initial residual = 0.00245766, Final residual = 1.57437e-09, No Iterations 3
min/max(T) = 299.393, 1044.98
GAMGPCG:  Solving for p_rgh, Initial residual = 0.0168052, Final residual = 2.10243e-07, No Iterations 5
diagonal:  Solving for rho, Initial residual = 0, Final residual = 0, No Iterations 0
time step continuity errors : sum local = 9.10771e-09, global = 2.58079e-10, cumulative = -2.1605e-07
GAMGPCG:  Solving for p_rgh, Initial residual = 0.00253879, Final residual = 5.04873e-07, No Iterations 4
diagonal:  Solving for rho, Initial residual = 0, Final residual = 0, No Iterations 0
time step continuity errors : sum local = 2.05314e-08, global = -4.30633e-10, cumulative = -2.1648e-07
DILUPBiCGStab:  Solving for omega, Initial residual = 8.4292e-05, Final residual = 1.52274e-09, No Iterations 2
[...]

Execution time for mesh.update() = 0 s

DILUPBiCGStab:  Solving for Ux, Initial residual = 0.00414859, Final residual = 3.79116e-09, No Iterations 3
DILUPBiCGStab:  Solving for Uy, Initial residual = 0.00391985, Final residual = 6.43683e-09, No Iterations 3
GAMGPCG:  Solving for G, Initial residual = 0.181231, Final residual = 3.52706e-05, No Iterations 6
DILUPBiCGStab:  Solving for O2, Initial residual = 0.0016449, Final residual = 2.46562e-09, No Iterations 3
DILUPBiCGStab:  Solving for H2O, Initial residual = 0.00164492, Final residual = 2.46565e-09, No Iterations 3
DILUPBiCGStab:  Solving for CH4, Initial residual = 0, Final residual = 0, No Iterations 0
DILUPBiCGStab:  Solving for CO2, Initial residual = 0.00164492, Final residual = 2.46565e-09, No Iterations 3
DILUPBiCGStab:  Solving for h, Initial residual = 0.00188195, Final residual = 2.54422e-09, No Iterations 3
min/max(T) = 299.892, 1044.98
GAMGPCG:  Solving for p_rgh, Initial residual = 0.0191651, Final residual = 1.80115e-07, No Iterations 5
diagonal:  Solving for rho, Initial residual = 0, Final residual = 0, No Iterations 0
time step continuity errors : sum local = 5.38887e-09, global = 9.78509e-11, cumulative = 1.23155e-06
GAMGPCG:  Solving for p_rgh, Initial residual = 0.00340749, Final residual = 3.10708e-07, No Iterations 4
diagonal:  Solving for rho, Initial residual = 0, Final residual = 0, No Iterations 0
time step continuity errors : sum local = 9.64536e-09, global = 5.50156e-10, cumulative = 1.2321e-06
DILUPBiCGStab:  Solving for omega, Initial residual = 7.4468e-05, Final residual = 1.31149e-09, No Iterations 2
DILUPBiCGStab:  Solving for k, Initial residual = 0.00301811, Final residual = 2.46904e-09, No Iterations 3

ExecutionTime = 293.24 s  ClockTime = 293 s

    Overall     = 0.00130653, 0.01
Time = 2491

diagonal:  Solving for rho, Initial residual = 0, Final residual = 0, No Iterations 0

Execution time for mesh.update() = 0 s

DILUPBiCGStab:  Solving for Ux, Initial residual = 0.00409578, Final residual = 3.59005e-09, No Iterations 3
DILUPBiCGStab:  Solving for Uy, Initial residual = 0.00389469, Final residual = 6.07797e-09, No Iterations 3
DILUPBiCGStab:  Solving for O2, Initial residual = 0.00163158, Final residual = 2.47278e-09, No Iterations 3
DILUPBiCGStab:  Solving for H2O, Initial residual = 0.00163147, Final residual = 2.473e-09, No Iterations 3
DILUPBiCGStab:  Solving for CH4, Initial residual = 0, Final residual = 0, No Iterations 0
DILUPBiCGStab:  Solving for CO2, Initial residual = 0.00163147, Final residual = 2.473e-09, No Iterations 3
DILUPBiCGStab:  Solving for h, Initial residual = 0.00186632, Final residual = 2.51964e-09, No Iterations 3
min/max(T) = 299.964, 1044.98
GAMGPCG:  Solving for p_rgh, Initial residual = 0.0195206, Final residual = 2.0393e-07, No Iterations 5
diagonal:  Solving for rho, Initial residual = 0, Final residual = 0, No Iterations 0
time step continuity errors : sum local = 6.07972e-09, global = 3.87979e-10, cumulative = 1.23249e-06
GAMGPCG:  Solving for p_rgh, Initial residual = 0.00331601, Final residual = 3.37425e-07, No Iterations 4
diagonal:  Solving for rho, Initial residual = 0, Final residual = 0, No Iterations 0
time step continuity errors : sum local = 1.03272e-08, global = 5.7565e-10, cumulative = 1.23307e-06
DILUPBiCGStab:  Solving for omega, Initial residual = 7.36264e-05, Final residual = 1.31497e-09, No Iterations 2
DILUPBiCGStab:  Solving for k, Initial residual = 0.00301107, Final residual = 2.57368e-09, No Iterations 3

ExecutionTime = 293.36 s  ClockTime = 293 s

    Overall     = 0.00129963, 0.01
Time = 2492

diagonal:  Solving for rho, Initial residual = 0, Final residual = 0, No Iterations 0

Execution time for mesh.update() = 0 s

DILUPBiCGStab:  Solving for Ux, Initial residual = 0.00407291, Final residual = 3.76353e-09, No Iterations 3
DILUPBiCGStab:  Solving for Uy, Initial residual = 0.00388733, Final residual = 5.58632e-09, No Iterations 3
DILUPBiCGStab:  Solving for O2, Initial residual = 0.00161986, Final residual = 2.16561e-09, No Iterations 3
DILUPBiCGStab:  Solving for H2O, Initial residual = 0.00161989, Final residual = 2.16561e-09, No Iterations 3
DILUPBiCGStab:  Solving for CH4, Initial residual = 0, Final residual = 0, No Iterations 0
DILUPBiCGStab:  Solving for CO2, Initial residual = 0.00161989, Final residual = 2.16561e-09, No Iterations 3
DILUPBiCGStab:  Solving for h, Initial residual = 0.00185199, Final residual = 2.25257e-09, No Iterations 3
min/max(T) = 299.96, 1044.98
GAMGPCG:  Solving for p_rgh, Initial residual = 0.018873, Final residual = 1.99815e-07, No Iterations 5
diagonal:  Solving for rho, Initial residual = 0, Final residual = 0, No Iterations 0
time step continuity errors : sum local = 5.93036e-09, global = 3.39162e-10, cumulative = 1.23341e-06
GAMGPCG:  Solving for p_rgh, Initial residual = 0.00323269, Final residual = 3.2112e-07, No Iterations 4
diagonal:  Solving for rho, Initial residual = 0, Final residual = 0, No Iterations 0
time step continuity errors : sum local = 9.79544e-09, global = 4.7073e-10, cumulative = 1.23388e-06
DILUPBiCGStab:  Solving for omega, Initial residual = 7.35112e-05, Final residual = 1.34817e-09, No Iterations 2
DILUPBiCGStab:  Solving for k, Initial residual = 0.0030048, Final residual = 2.55916e-09, No Iterations 3

ExecutionTime = 293.47 s  ClockTime = 293 s

    Overall     = 0.0013002, 0.01
Time = 2493

diagonal:  Solving for rho, Initial residual = 0, Final residual = 0, No Iterations 0

Execution time for mesh.update() = 0 s

DILUPBiCGStab:  Solving for Ux, Initial residual = 0.00405225, Final residual = 4.21015e-09, No Iterations 3
DILUPBiCGStab:  Solving for Uy, Initial residual = 0.00387481, Final residual = 4.74037e-09, No Iterations 3
DILUPBiCGStab:  Solving for O2, Initial residual = 0.00160622, Final residual = 2.17089e-09, No Iterations 3
DILUPBiCGStab:  Solving for H2O, Initial residual = 0.00160623, Final residual = 2.1709e-09, No Iterations 3
DILUPBiCGStab:  Solving for CH4, Initial residual = 0, Final residual = 0, No Iterations 0
DILUPBiCGStab:  Solving for CO2, Initial residual = 0.00160623, Final residual = 2.1709e-09, No Iterations 3
DILUPBiCGStab:  Solving for h, Initial residual = 0.00183518, Final residual = 2.25568e-09, No Iterations 3
min/max(T) = 299.97, 1044.98
GAMGPCG:  Solving for p_rgh, Initial residual = 0.0194814, Final residual = 2.02724e-07, No Iterations 5
diagonal:  Solving for rho, Initial residual = 0, Final residual = 0, No Iterations 0
time step continuity errors : sum local = 6.04514e-09, global = 3.85452e-10, cumulative = 1.23426e-06
GAMGPCG:  Solving for p_rgh, Initial residual = 0.00316534, Final residual = 3.62489e-07, No Iterations 4
diagonal:  Solving for rho, Initial residual = 0, Final residual = 0, No Iterations 0
time step continuity errors : sum local = 1.08622e-08, global = 5.07629e-10, cumulative = 1.23477e-06
DILUPBiCGStab:  Solving for omega, Initial residual = 7.39755e-05, Final residual = 1.45133e-09, No Iterations 2
DILUPBiCGStab:  Solving for k, Initial residual = 0.00302707, Final residual = 2.51178e-09, No Iterations 3

ExecutionTime = 293.59 s  ClockTime = 293 s

    Overall     = 0.0012933, 0.01
Time = 2494

diagonal:  Solving for rho, Initial residual = 0, Final residual = 0, No Iterations 0

Execution time for mesh.update() = 0 s

DILUPBiCGStab:  Solving for Ux, Initial residual = 0.00406275, Final residual = 4.58136e-09, No Iterations 3
DILUPBiCGStab:  Solving for Uy, Initial residual = 0.00388598, Final residual = 4.31239e-09, No Iterations 3
DILUPBiCGStab:  Solving for O2, Initial residual = 0.00160007, Final residual = 2.24972e-09, No Iterations 3
DILUPBiCGStab:  Solving for H2O, Initial residual = 0.00160009, Final residual = 2.24973e-09, No Iterations 3
DILUPBiCGStab:  Solving for CH4, Initial residual = 0, Final residual = 0, No Iterations 0
DILUPBiCGStab:  Solving for CO2, Initial residual = 0.00160009, Final residual = 2.24973e-09, No Iterations 3
DILUPBiCGStab:  Solving for h, Initial residual = 0.00182984, Final residual = 2.34466e-09, No Iterations 3
min/max(T) = 299.976, 1044.98
GAMGPCG:  Solving for p_rgh, Initial residual = 0.0186732, Final residual = 1.90544e-07, No Iterations 5
diagonal:  Solving for rho, Initial residual = 0, Final residual = 0, No Iterations 0
time step continuity errors : sum local = 5.63557e-09, global = 1.8813e-10, cumulative = 1.23496e-06
GAMGPCG:  Solving for p_rgh, Initial residual = 0.00320452, Final residual = 3.50108e-07, No Iterations 4
diagonal:  Solving for rho, Initial residual = 0, Final residual = 0, No Iterations 0
time step continuity errors : sum local = 1.04875e-08, global = 4.06581e-10, cumulative = 1.23536e-06
DILUPBiCGStab:  Solving for omega, Initial residual = 7.41999e-05, Final residual = 1.48047e-09, No Iterations 2
DILUPBiCGStab:  Solving for k, Initial residual = 0.00303679, Final residual = 2.3485e-09, No Iterations 3

ExecutionTime = 293.71 s  ClockTime = 293 s

    Overall     = 0.00129379, 0.01
Time = 2495

diagonal:  Solving for rho, Initial residual = 0, Final residual = 0, No Iterations 0

Execution time for mesh.update() = 0 s

DILUPBiCGStab:  Solving for Ux, Initial residual = 0.00403578, Final residual = 4.69638e-09, No Iterations 3
DILUPBiCGStab:  Solving for Uy, Initial residual = 0.00387501, Final residual = 4.05459e-09, No Iterations 3
DILUPBiCGStab:  Solving for O2, Initial residual = 0.00158926, Final residual = 2.12606e-09, No Iterations 3
DILUPBiCGStab:  Solving for H2O, Initial residual = 0.00158923, Final residual = 2.12606e-09, No Iterations 3
DILUPBiCGStab:  Solving for CH4, Initial residual = 0, Final residual = 0, No Iterations 0
DILUPBiCGStab:  Solving for CO2, Initial residual = 0.00158923, Final residual = 2.12606e-09, No Iterations 3
DILUPBiCGStab:  Solving for h, Initial residual = 0.00181781, Final residual = 2.26222e-09, No Iterations 3
min/max(T) = 300, 1044.98
GAMGPCG:  Solving for p_rgh, Initial residual = 0.0184251, Final residual = 1.93836e-07, No Iterations 5
diagonal:  Solving for rho, Initial residual = 0, Final residual = 0, No Iterations 0
time step continuity errors : sum local = 5.73874e-09, global = 1.26676e-10, cumulative = 1.23549e-06
GAMGPCG:  Solving for p_rgh, Initial residual = 0.0031402, Final residual = 3.49782e-07, No Iterations 4
diagonal:  Solving for rho, Initial residual = 0, Final residual = 0, No Iterations 0
time step continuity errors : sum local = 1.03073e-08, global = 9.61746e-10, cumulative = 1.23645e-06
DILUPBiCGStab:  Solving for omega, Initial residual = 7.299e-05, Final residual = 1.44037e-09, No Iterations 2
DILUPBiCGStab:  Solving for k, Initial residual = 0.00300527, Final residual = 2.20996e-09, No Iterations 3

ExecutionTime = 293.83 s  ClockTime = 293 s

    Overall     = 0.00128613, 0.01
Time = 2496

diagonal:  Solving for rho, Initial residual = 0, Final residual = 0, No Iterations 0

Execution time for mesh.update() = 0 s

DILUPBiCGStab:  Solving for Ux, Initial residual = 0.00399342, Final residual = 4.92132e-09, No Iterations 3
DILUPBiCGStab:  Solving for Uy, Initial residual = 0.00385087, Final residual = 3.9146e-09, No Iterations 3
DILUPBiCGStab:  Solving for O2, Initial residual = 0.00157864, Final residual = 2.21271e-09, No Iterations 3
DILUPBiCGStab:  Solving for H2O, Initial residual = 0.00157863, Final residual = 2.21271e-09, No Iterations 3
DILUPBiCGStab:  Solving for CH4, Initial residual = 0, Final residual = 0, No Iterations 0
DILUPBiCGStab:  Solving for CO2, Initial residual = 0.00157863, Final residual = 2.21271e-09, No Iterations 3
DILUPBiCGStab:  Solving for h, Initial residual = 0.00180584, Final residual = 2.33086e-09, No Iterations 3
min/max(T) = 300, 1044.98
GAMGPCG:  Solving for p_rgh, Initial residual = 0.0186907, Final residual = 1.84218e-07, No Iterations 5
diagonal:  Solving for rho, Initial residual = 0, Final residual = 0, No Iterations 0
time step continuity errors : sum local = 5.42841e-09, global = -8.42856e-11, cumulative = 1.23637e-06
GAMGPCG:  Solving for p_rgh, Initial residual = 0.003057, Final residual = 3.5405e-07, No Iterations 4
diagonal:  Solving for rho, Initial residual = 0, Final residual = 0, No Iterations 0
time step continuity errors : sum local = 1.04856e-08, global = 5.73858e-10, cumulative = 1.23694e-06
DILUPBiCGStab:  Solving for omega, Initial residual = 7.1664e-05, Final residual = 1.37139e-09, No Iterations 2
DILUPBiCGStab:  Solving for k, Initial residual = 0.00298616, Final residual = 2.20542e-09, No Iterations 3

ExecutionTime = 293.95 s  ClockTime = 294 s

    Overall     = 0.00128654, 0.01
Time = 2497

diagonal:  Solving for rho, Initial residual = 0, Final residual = 0, No Iterations 0

Execution time for mesh.update() = 0 s

DILUPBiCGStab:  Solving for Ux, Initial residual = 0.0039685, Final residual = 5.06825e-09, No Iterations 3
DILUPBiCGStab:  Solving for Uy, Initial residual = 0.00382142, Final residual = 3.98831e-09, No Iterations 3
DILUPBiCGStab:  Solving for O2, Initial residual = 0.00156517, Final residual = 2.12653e-09, No Iterations 3
DILUPBiCGStab:  Solving for H2O, Initial residual = 0.00156517, Final residual = 2.12653e-09, No Iterations 3
DILUPBiCGStab:  Solving for CH4, Initial residual = 0, Final residual = 0, No Iterations 0
DILUPBiCGStab:  Solving for CO2, Initial residual = 0.00156517, Final residual = 2.12653e-09, No Iterations 3
DILUPBiCGStab:  Solving for h, Initial residual = 0.00179045, Final residual = 2.27274e-09, No Iterations 3
min/max(T) = 300, 1044.98
GAMGPCG:  Solving for p_rgh, Initial residual = 0.0179373, Final residual = 2.23668e-07, No Iterations 5
diagonal:  Solving for rho, Initial residual = 0, Final residual = 0, No Iterations 0
time step continuity errors : sum local = 6.55539e-09, global = 2.34152e-10, cumulative = 1.23718e-06
GAMGPCG:  Solving for p_rgh, Initial residual = 0.0030931, Final residual = 3.56104e-07, No Iterations 4
diagonal:  Solving for rho, Initial residual = 0, Final residual = 0, No Iterations 0
time step continuity errors : sum local = 1.05141e-08, global = 6.20066e-10, cumulative = 1.2378e-06
DILUPBiCGStab:  Solving for omega, Initial residual = 7.03703e-05, Final residual = 1.39304e-09, No Iterations 2
DILUPBiCGStab:  Solving for k, Initial residual = 0.00294893, Final residual = 2.11434e-09, No Iterations 3

ExecutionTime = 294.07 s  ClockTime = 294 s

    Overall     = 0.00127878, 0.01
Time = 2498

diagonal:  Solving for rho, Initial residual = 0, Final residual = 0, No Iterations 0

Execution time for mesh.update() = 0 s

DILUPBiCGStab:  Solving for Ux, Initial residual = 0.00396517, Final residual = 5.25015e-09, No Iterations 3
DILUPBiCGStab:  Solving for Uy, Initial residual = 0.00381996, Final residual = 4.08927e-09, No Iterations 3
DILUPBiCGStab:  Solving for O2, Initial residual = 0.00156224, Final residual = 2.11977e-09, No Iterations 3
DILUPBiCGStab:  Solving for H2O, Initial residual = 0.00156224, Final residual = 2.11977e-09, No Iterations 3
DILUPBiCGStab:  Solving for CH4, Initial residual = 0, Final residual = 0, No Iterations 0
DILUPBiCGStab:  Solving for CO2, Initial residual = 0.00156224, Final residual = 2.11977e-09, No Iterations 3
DILUPBiCGStab:  Solving for h, Initial residual = 0.00178512, Final residual = 2.19921e-09, No Iterations 3
min/max(T) = 300, 1044.98
GAMGPCG:  Solving for p_rgh, Initial residual = 0.0187844, Final residual = 2.01972e-07, No Iterations 5
diagonal:  Solving for rho, Initial residual = 0, Final residual = 0, No Iterations 0
time step continuity errors : sum local = 5.96559e-09, global = 1.49315e-10, cumulative = 1.23795e-06
GAMGPCG:  Solving for p_rgh, Initial residual = 0.00306997, Final residual = 3.43614e-07, No Iterations 4
diagonal:  Solving for rho, Initial residual = 0, Final residual = 0, No Iterations 0
time step continuity errors : sum local = 1.01001e-08, global = 5.73949e-10, cumulative = 1.23852e-06
DILUPBiCGStab:  Solving for omega, Initial residual = 7.06523e-05, Final residual = 1.38209e-09, No Iterations 2
DILUPBiCGStab:  Solving for k, Initial residual = 0.00297833, Final residual = 2.01689e-09, No Iterations 3

ExecutionTime = 294.19 s  ClockTime = 294 s

    Overall     = 0.0012793, 0.01
Time = 2499

diagonal:  Solving for rho, Initial residual = 0, Final residual = 0, No Iterations 0

Execution time for mesh.update() = 0 s

DILUPBiCGStab:  Solving for Ux, Initial residual = 0.00400109, Final residual = 5.55394e-09, No Iterations 3
DILUPBiCGStab:  Solving for Uy, Initial residual = 0.00382779, Final residual = 4.26739e-09, No Iterations 3
DILUPBiCGStab:  Solving for O2, Initial residual = 0.00154447, Final residual = 2.17226e-09, No Iterations 3
DILUPBiCGStab:  Solving for H2O, Initial residual = 0.00154447, Final residual = 2.17226e-09, No Iterations 3
DILUPBiCGStab:  Solving for CH4, Initial residual = 0, Final residual = 0, No Iterations 0
DILUPBiCGStab:  Solving for CO2, Initial residual = 0.00154447, Final residual = 2.17226e-09, No Iterations 3
DILUPBiCGStab:  Solving for h, Initial residual = 0.00176734, Final residual = 2.27794e-09, No Iterations 3
min/max(T) = 300, 1044.98
GAMGPCG:  Solving for p_rgh, Initial residual = 0.0183335, Final residual = 9.98016e-07, No Iterations 4
diagonal:  Solving for rho, Initial residual = 0, Final residual = 0, No Iterations 0
time step continuity errors : sum local = 2.83891e-08, global = -1.38496e-09, cumulative = 1.23713e-06
GAMGPCG:  Solving for p_rgh, Initial residual = 0.00320391, Final residual = 3.30612e-07, No Iterations 4
diagonal:  Solving for rho, Initial residual = 0, Final residual = 0, No Iterations 0
time step continuity errors : sum local = 9.67023e-09, global = 7.52822e-10, cumulative = 1.23789e-06
DILUPBiCGStab:  Solving for omega, Initial residual = 6.97569e-05, Final residual = 1.4558e-09, No Iterations 2
DILUPBiCGStab:  Solving for k, Initial residual = 0.00296498, Final residual = 1.90492e-09, No Iterations 3

ExecutionTime = 294.3 s  ClockTime = 294 s

    Overall     = 0.00127231, 0.01
Time = 2500

diagonal:  Solving for rho, Initial residual = 0, Final residual = 0, No Iterations 0

Execution time for mesh.update() = 0.01 s

DILUPBiCGStab:  Solving for Ux, Initial residual = 0.00397439, Final residual = 5.38538e-09, No Iterations 3
DILUPBiCGStab:  Solving for Uy, Initial residual = 0.00382951, Final residual = 4.2203e-09, No Iterations 3
GAMGPCG:  Solving for G, Initial residual = 0.200932, Final residual = 8.80407e-05, No Iterations 5
DILUPBiCGStab:  Solving for O2, Initial residual = 0.00153935, Final residual = 2.14972e-09, No Iterations 3
DILUPBiCGStab:  Solving for H2O, Initial residual = 0.00153934, Final residual = 2.14972e-09, No Iterations 3
DILUPBiCGStab:  Solving for CH4, Initial residual = 0, Final residual = 0, No Iterations 0
DILUPBiCGStab:  Solving for CO2, Initial residual = 0.00153934, Final residual = 2.14972e-09, No Iterations 3
DILUPBiCGStab:  Solving for h, Initial residual = 0.00176061, Final residual = 2.23478e-09, No Iterations 3
min/max(T) = 300, 1044.98
GAMGPCG:  Solving for p_rgh, Initial residual = 0.0184534, Final residual = 8.93733e-07, No Iterations 4
diagonal:  Solving for rho, Initial residual = 0, Final residual = 0, No Iterations 0
time step continuity errors : sum local = 2.57068e-08, global = -1.0616e-10, cumulative = 1.23778e-06
GAMGPCG:  Solving for p_rgh, Initial residual = 0.00309171, Final residual = 3.22286e-07, No Iterations 4
diagonal:  Solving for rho, Initial residual = 0, Final residual = 0, No Iterations 0
time step continuity errors : sum local = 9.37823e-09, global = 6.79295e-10, cumulative = 1.23846e-06
DILUPBiCGStab:  Solving for omega, Initial residual = 6.97584e-05, Final residual = 1.47093e-09, No Iterations 2
DILUPBiCGStab:  Solving for k, Initial residual = 0.00294313, Final residual = 1.95369e-09, No Iterations 3

ExecutionTime = 294.56 s  ClockTime = 294 s


Patch Mean : 301.857
Patch Variance : 8.37465e-05
Patch Gradient : 0.130211
End
