/*---------------------------------------------------------------------------*\
  =========                 |
  \\      /  F ield         | OpenFOAM: The Open Source CFD Toolbox
   \\    /   O peration     | Website:  https://openfoam.org
    \\  /    A nd           | Version:  dev
     \\/     M anipulation  |
\*---------------------------------------------------------------------------*/
Build  : dev-cabe48fb62c1
Exec   : fireDyMFoam
Date   : Apr 15 2019
Time   : 12:15:07
Host   : "Host"
PID    : 31969
I/O    : uncollated
Case   : /home/tesla/OpenFOAM/tesla-dev/run/rollerOpt_COBYLA_NEW
nProcs : 1
sigFpe : Enabling floating point exception trapping (FOAM_SIGFPE).
fileModificationChecking : Monitoring run-time modified files using timeStampMaster (fileModificationSkew 10)
allowSystemOperations : Allowing user-supplied system call operations

// * * * * * * * * * * * * * * * * * * * * * * * * * * * * * * * * * * * * * //
Create time

--> FOAM Warning : 
    From function void* Foam::dlOpen(const Foam::fileName&, bool)
    in file POSIX.C at line 1268
    dlopen error : libgroovyBC.so: cannot open shared object file: No such file or directory
--> FOAM Warning : 
    From function bool Foam::dlLibraryTable::open(const Foam::fileName&, bool)
    in file db/dynamicLibrary/dlLibraryTable/dlLibraryTable.C at line 105
    could not load "libgroovyBC.so"
Create mesh for time = 250

Selecting dynamicFvMesh dynamicRefineFvMesh
Detected 548 cells that are protected from refinement. Writing these to cellSet protectedCells.

PIMPLE: No convergence criteria found


PIMPLE: Operating solver in PISO mode


Initializing Solver

Selecting thermodynamics package 
{
    type            hePsiThermo;
    mixture         reactingMixture;
    transport       sutherland;
    thermo          janaf;
    energy          sensibleEnthalpy;
    equationOfState perfectGas;
    specie          specie;
}

Selecting chemistryReader foamChemistryReader
    elements not defined in "/home/tesla/OpenFOAM/tesla-dev/run/rollerOpt_COBYLA_NEW/constant/reactions"
Reading/calculating face flux field phi

No MRF models present

Selecting turbulence model type RAS
Selecting RAS turbulence model kOmegaSST
Selecting patchDistMethod meshWave
kOmegaSSTCoeffs
{
    delta           cubeRootVol;
    cubeRootVolCoeffs
    {
        deltaCoeff      1;
    }
    alphaK1         0.85;
    alphaK2         1;
    alphaOmega1     0.5;
    alphaOmega2     0.856;
    gamma1          0.555556;
    gamma2          0.44;
    beta1           0.075;
    beta2           0.0828;
    betaStar        0.09;
    a1              0.31;
    b1              1;
    c1              10;
    F3              false;
}

Selecting combustion model none<psiThermoCombustion>
--> FOAM Warning : 
    From function static Foam::autoPtr<T> Foam::combustionModel::New(typename CombustionModel::reactionThermo&, const Foam::compressibleTurbulenceModel&, const Foam::word&) [with CombustionModel = Foam::CombustionModel<Foam::psiReactionThermo>; typename CombustionModel::reactionThermo = Foam::psiReactionThermo]
    in file /home/tesla/OpenFOAM/OpenFOAM-dev/src/combustionModels/lnInclude/combustionModelTemplates.C at line 69
    Template parameters are no longer required when selecting a combustionModel. This information is now obtained directly from the thermodynamics. Actually selecting combustion model none.

Reading g

Reading hRef
Calculating field g.h


Reading pRef
Selecting radiationModel P1
Selecting absorptionEmissionModel greyMeanAbsorptionEmission
Selecting scatterModel none
Selecting sootModel none
Creating finite volume options from "system/fvOptions"

No finite volume options present
Using LTS

Starting time loop

Using dynamicCode for functionObject patchCalcs at line 64 in "/home/tesla/OpenFOAM/tesla-dev/run/rollerOpt_COBYLA_NEW/system/controlDict.functions.patchCalcs"
    Overall     = 0.00185573, 0.01
Time = 251

diagonal:  Solving for rho, Initial residual = 0, Final residual = 0, No Iterations 0

Execution time for mesh.update() = 0 s

DILUPBiCGStab:  Solving for Ux, Initial residual = 0.00726739, Final residual = 5.10692e-09, No Iterations 3
DILUPBiCGStab:  Solving for Uy, Initial residual = 0.00747005, Final residual = 5.60489e-09, No Iterations 3
GAMGPCG:  Solving for G, Initial residual = 0.0310706, Final residual = 6.84088e-05, No Iterations 4
DILUPBiCGStab:  Solving for O2, Initial residual = 0.00386242, Final residual = 3.21601e-09, No Iterations 3
DILUPBiCGStab:  Solving for H2O, Initial residual = 0.00386238, Final residual = 3.21627e-09, No Iterations 3
DILUPBiCGStab:  Solving for CH4, Initial residual = 0, Final residual = 0, No Iterations 0
DILUPBiCGStab:  Solving for CO2, Initial residual = 0.00386239, Final residual = 3.21629e-09, No Iterations 3
DILUPBiCGStab:  Solving for h, Initial residual = 0.00437282, Final residual = 3.33098e-09, No Iterations 3
min/max(T) = 300, 1044.96
GAMGPCG:  Solving for p_rgh, Initial residual = 0.02177, Final residual = 1.82156e-07, No Iterations 5
diagonal:  Solving for rho, Initial residual = 0, Final residual = 0, No Iterations 0
time step continuity errors : sum local = 2.46057e-06, global = -1.04029e-07, cumulative = -1.04029e-07
GAMGPCG:  Solving for p_rgh, Initial residual = 0.00345322, Final residual = 1.84925e-07, No Iterations 4
diagonal:  Solving for rho, Initial residual = 0, Final residual = 0, No Iterations 0
time step continuity errors : sum local = 2.46123e-06, global = -1.02448e-07, cumulative = -2.06477e-07
DILUPBiCGStab:  Solving for omega, Initial residual = 0.000153887, Final residual = 1.42524e-09, No Iterations 2
DILUPBiCGStab:  Solving for k, Initial residual = 0.0091169, Final residual = 7.76422e-09, No Iterations 3

ExecutionTime = 0.37 s  ClockTime = 1 s

    Overall     = 0.00185714, 0.01
Time = 252

diagonal:  Solving for rho, Initial residual = 0, Final residual = 0, No Iterations 0

Execution time for mesh.update() = 0 s

DILUPBiCGStab:  Solving for Ux, Initial residual = 0.00730982, Final residual = 5.50662e-09, No Iterations 3
DILUPBiCGStab:  Solving for Uy, Initial residual = 0.00745305, Final residual = 5.81285e-09, No Iterations 3
DILUPBiCGStab:  Solving for O2, Initial residual = 0.00385685, Final residual = 3.17867e-09, No Iterations 3
DILUPBiCGStab:  Solving for H2O, Initial residual = 0.00385685, Final residual = 3.17905e-09, No Iterations 3
DILUPBiCGStab:  Solving for CH4, Initial residual = 0, Final residual = 0, No Iterations 0
DILUPBiCGStab:  Solving for CO2, Initial residual = 0.00385685, Final residual = 3.17915e-09, No Iterations 3
DILUPBiCGStab:  Solving for h, Initial residual = 0.00436975, Final residual = 3.0988e-09, No Iterations 3
min/max(T) = 300, 1044.96
GAMGPCG:  Solving for p_rgh, Initial residual = 0.0203852, Final residual = 1.79366e-07, No Iterations 5
diagonal:  Solving for rho, Initial residual = 0, Final residual = 0, No Iterations 0
time step continuity errors : sum local = 1.52458e-08, global = 1.60982e-09, cumulative = -2.04867e-07
GAMGPCG:  Solving for p_rgh, Initial residual = 0.00329251, Final residual = 1.81051e-07, No Iterations 4
diagonal:  Solving for rho, Initial residual = 0, Final residual = 0, No Iterations 0
time step continuity errors : sum local = 1.45242e-08, global = 2.34194e-09, cumulative = -2.02525e-07
DILUPBiCGStab:  Solving for omega, Initial residual = 0.000155394, Final residual = 1.48886e-09, No Iterations 2
DILUPBiCGStab:  Solving for k, Initial residual = 0.00914705, Final residual = 5.53594e-09, No Iterations 3

ExecutionTime = 0.49 s  ClockTime = 1 s

    Overall     = 0.00185509, 0.01
Time = 253

diagonal:  Solving for rho, Initial residual = 0, Final residual = 0, No Iterations 0

Execution time for mesh.update() = 0 s

DILUPBiCGStab:  Solving for Ux, Initial residual = 0.00732107, Final residual = 6.07102e-09, No Iterations 3
DILUPBiCGStab:  Solving for Uy, Initial residual = 0.00737283, Final residual = 5.22567e-09, No Iterations 3
DILUPBiCGStab:  Solving for O2, Initial residual = 0.00386937, Final residual = 2.96325e-09, No Iterations 3
DILUPBiCGStab:  Solving for H2O, Initial residual = 0.00386938, Final residual = 2.96361e-09, No Iterations 3
DILUPBiCGStab:  Solving for CH4, Initial residual = 0, Final residual = 0, No Iterations 0
DILUPBiCGStab:  Solving for CO2, Initial residual = 0.00386938, Final residual = 2.96361e-09, No Iterations 3
DILUPBiCGStab:  Solving for h, Initial residual = 0.00438982, Final residual = 3.02662e-09, No Iterations 3
min/max(T) = 300, 1044.96
GAMGPCG:  Solving for p_rgh, Initial residual = 0.0206361, Final residual = 1.6885e-07, No Iterations 5
diagonal:  Solving for rho, Initial residual = 0, Final residual = 0, No Iterations 0
time step continuity errors : sum local = 1.43054e-08, global = 1.62554e-09, cumulative = -2.00899e-07
GAMGPCG:  Solving for p_rgh, Initial residual = 0.00302789, Final residual = 2.24625e-07, No Iterations 4
diagonal:  Solving for rho, Initial residual = 0, Final residual = 0, No Iterations 0
time step continuity errors : sum local = 1.80925e-08, global = 2.67049e-09, cumulative = -1.98229e-07
DILUPBiCGStab:  Solving for omega, Initial residual = 0.000154666, Final residual = 1.37391e-09, No Iterations 2
DILUPBiCGStab:  Solving for k, Initial residual = 0.00916692, Final residual = 5.62692e-09, No Iterations 3

ExecutionTime = 0.61 s  ClockTime = 1 s

    Overall     = 0.00185629, 0.01
Time = 254

diagonal:  Solving for rho, Initial residual = 0, Final residual = 0, No Iterations 0

Execution time for mesh.update() = 0 s

DILUPBiCGStab:  Solving for Ux, Initial residual = 0.00738307, Final residual = 7.08236e-09, No Iterations 3
DILUPBiCGStab:  Solving for Uy, Initial residual = 0.00737391, Final residual = 5.32422e-09, No Iterations 3
DILUPBiCGStab:  Solving for O2, Initial residual = 0.0038681, Final residual = 2.9515e-09, No Iterations 3
DILUPBiCGStab:  Solving for H2O, Initial residual = 0.0038681, Final residual = 2.95153e-09, No Iterations 3
DILUPBiCGStab:  Solving for CH4, Initial residual = 0, Final residual = 0, No Iterations 0
DILUPBiCGStab:  Solving for CO2, Initial residual = 0.0038681, Final residual = 2.95157e-09, No Iterations 3
DILUPBiCGStab:  Solving for h, Initial residual = 0.00439449, Final residual = 3.03572e-09, No Iterations 3
min/max(T) = 300, 1044.96
GAMGPCG:  Solving for p_rgh, Initial residual = 0.0205021, Final residual = 2.02944e-07, No Iterations 5
diagonal:  Solving for rho, Initial residual = 0, Final residual = 0, No Iterations 0
time step continuity errors : sum local = 1.71816e-08, global = 1.43877e-09, cumulative = -1.9679e-07
GAMGPCG:  Solving for p_rgh, Initial residual = 0.00308996, Final residual = 2.16252e-07, No Iterations 4
diagonal:  Solving for rho, Initial residual = 0, Final residual = 0, No Iterations 0
time step continuity errors : sum local = 1.76296e-08, global = 3.2183e-09, cumulative = -1.93572e-07
DILUPBiCGStab:  Solving for omega, Initial residual = 0.000152861, Final residual = 1.40337e-09, No Iterations 2
DILUPBiCGStab:  Solving for k, Initial residual = 0.00920373, Final residual = 6.60401e-09, No Iterations 3

ExecutionTime = 0.73 s  ClockTime = 1 s

    Overall     = 0.00185409, 0.01
Time = 255

diagonal:  Solving for rho, Initial residual = 0, Final residual = 0, No Iterations 0

Execution time for mesh.update() = 0 s

DILUPBiCGStab:  Solving for Ux, Initial residual = 0.00739666, Final residual = 7.15882e-09, No Iterations 3
DILUPBiCGStab:  Solving for Uy, Initial residual = 0.00736418, Final residual = 5.3392e-09, No Iterations 3
DILUPBiCGStab:  Solving for O2, Initial residual = 0.00386838, Final residual = 2.77774e-09, No Iterations 3
DILUPBiCGStab:  Solving for H2O, Initial residual = 0.00386839, Final residual = 2.77773e-09, No Iterations 3
DILUPBiCGStab:  Solving for CH4, Initial residual = 0, Final residual = 0, No Iterations 0
DILUPBiCGStab:  Solving for CO2, Initial residual = 0.00386839, Final residual = 2.77774e-09, No Iterations 3
DILUPBiCGStab:  Solving for h, Initial residual = 0.00439833, Final residual = 2.90169e-09, No Iterations 3
min/max(T) = 300, 1044.96
GAMGPCG:  Solving for p_rgh, Initial residual = 0.020102, Final residual = 2.2246e-07, No Iterations 5
diagonal:  Solving for rho, Initial residual = 0, Final residual = 0, No Iterations 0
time step continuity errors : sum local = 1.87739e-08, global = 1.41346e-09, cumulative = -1.92158e-07
GAMGPCG:  Solving for p_rgh, Initial residual = 0.00311729, Final residual = 2.27016e-07, No Iterations 4
diagonal:  Solving for rho, Initial residual = 0, Final residual = 0, No Iterations 0
time step continuity errors : sum local = 1.87269e-08, global = 3.69913e-09, cumulative = -1.88459e-07
DILUPBiCGStab:  Solving for omega, Initial residual = 0.000153086, Final residual = 1.32605e-09, No Iterations 2
DILUPBiCGStab:  Solving for k, Initial residual = 0.00925065, Final residual = 6.58989e-09, No Iterations 3

ExecutionTime = 0.85 s  ClockTime = 1 s

    Overall     = 0.00185292, 0.01
Time = 256

diagonal:  Solving for rho, Initial residual = 0, Final residual = 0, No Iterations 0

Execution time for mesh.update() = 0 s

DILUPBiCGStab:  Solving for Ux, Initial residual = 0.00741742, Final residual = 7.32361e-09, No Iterations 3
DILUPBiCGStab:  Solving for Uy, Initial residual = 0.00729661, Final residual = 5.52673e-09, No Iterations 3
DILUPBiCGStab:  Solving for O2, Initial residual = 0.00386728, Final residual = 3.01596e-09, No Iterations 3
DILUPBiCGStab:  Solving for H2O, Initial residual = 0.00386729, Final residual = 3.01595e-09, No Iterations 3
DILUPBiCGStab:  Solving for CH4, Initial residual = 0, Final residual = 0, No Iterations 0
DILUPBiCGStab:  Solving for CO2, Initial residual = 0.00386729, Final residual = 3.01596e-09, No Iterations 3
DILUPBiCGStab:  Solving for h, Initial residual = 0.00439628, Final residual = 3.21341e-09, No Iterations 3
min/max(T) = 300, 1044.96
GAMGPCG:  Solving for p_rgh, Initial residual = 0.0195118, Final residual = 2.08628e-07, No Iterations 5
diagonal:  Solving for rho, Initial residual = 0, Final residual = 0, No Iterations 0
time step continuity errors : sum local = 1.76585e-08, global = 7.79903e-10, cumulative = -1.87679e-07
GAMGPCG:  Solving for p_rgh, Initial residual = 0.00295965, Final residual = 8.3521e-07, No Iterations 3
diagonal:  Solving for rho, Initial residual = 0, Final residual = 0, No Iterations 0
time step continuity errors : sum local = 6.90523e-08, global = 1.5216e-08, cumulative = -1.72463e-07
DILUPBiCGStab:  Solving for omega, Initial residual = 0.000153849, Final residual = 1.36944e-09, No Iterations 2
DILUPBiCGStab:  Solving for k, Initial residual = 0.00924437, Final residual = 7.47576e-09, No Iterations 3

ExecutionTime = 0.98 s  ClockTime = 1 s

    Overall     = 0.00185316, 0.01
Time = 257

diagonal:  Solving for rho, Initial residual = 0, Final residual = 0, No Iterations 0

Execution time for mesh.update() = 0 s

DILUPBiCGStab:  Solving for Ux, Initial residual = 0.00744384, Final residual = 7.6965e-09, No Iterations 3
DILUPBiCGStab:  Solving for Uy, Initial residual = 0.00725444, Final residual = 5.56698e-09, No Iterations 3
DILUPBiCGStab:  Solving for O2, Initial residual = 0.00387764, Final residual = 3.08673e-09, No Iterations 3
DILUPBiCGStab:  Solving for H2O, Initial residual = 0.00387764, Final residual = 3.08674e-09, No Iterations 3
DILUPBiCGStab:  Solving for CH4, Initial residual = 0, Final residual = 0, No Iterations 0
DILUPBiCGStab:  Solving for CO2, Initial residual = 0.00387764, Final residual = 3.08674e-09, No Iterations 3
DILUPBiCGStab:  Solving for h, Initial residual = 0.00441156, Final residual = 3.25145e-09, No Iterations 3
min/max(T) = 300, 1044.96
GAMGPCG:  Solving for p_rgh, Initial residual = 0.0192291, Final residual = 1.99868e-07, No Iterations 5
diagonal:  Solving for rho, Initial residual = 0, Final residual = 0, No Iterations 0
time step continuity errors : sum local = 1.69223e-08, global = 3.28992e-10, cumulative = -1.72134e-07
GAMGPCG:  Solving for p_rgh, Initial residual = 0.00283641, Final residual = 8.7644e-07, No Iterations 3
diagonal:  Solving for rho, Initial residual = 0, Final residual = 0, No Iterations 0
time step continuity errors : sum local = 7.30212e-08, global = 1.97201e-08, cumulative = -1.52414e-07
DILUPBiCGStab:  Solving for omega, Initial residual = 0.000150474, Final residual = 1.31128e-09, No Iterations 2
DILUPBiCGStab:  Solving for k, Initial residual = 0.00927037, Final residual = 6.50879e-09, No Iterations 3

ExecutionTime = 1.1 s  ClockTime = 1 s

    Overall     = 0.00184639, 0.01
Time = 258

diagonal:  Solving for rho, Initial residual = 0, Final residual = 0, No Iterations 0

Execution time for mesh.update() = 0 s

DILUPBiCGStab:  Solving for Ux, Initial residual = 0.00747107, Final residual = 9.12537e-09, No Iterations 3
DILUPBiCGStab:  Solving for Uy, Initial residual = 0.00721898, Final residual = 5.74473e-09, No Iterations 3
DILUPBiCGStab:  Solving for O2, Initial residual = 0.00387482, Final residual = 3.61339e-09, No Iterations 3
DILUPBiCGStab:  Solving for H2O, Initial residual = 0.00387482, Final residual = 3.61341e-09, No Iterations 3
DILUPBiCGStab:  Solving for CH4, Initial residual = 0, Final residual = 0, No Iterations 0
DILUPBiCGStab:  Solving for CO2, Initial residual = 0.00387482, Final residual = 3.61341e-09, No Iterations 3
DILUPBiCGStab:  Solving for h, Initial residual = 0.00441121, Final residual = 3.73119e-09, No Iterations 3
min/max(T) = 300, 1044.96
GAMGPCG:  Solving for p_rgh, Initial residual = 0.0186222, Final residual = 1.70811e-07, No Iterations 5
diagonal:  Solving for rho, Initial residual = 0, Final residual = 0, No Iterations 0
time step continuity errors : sum local = 1.44422e-08, global = -6.18501e-12, cumulative = -1.52421e-07
GAMGPCG:  Solving for p_rgh, Initial residual = 0.00280952, Final residual = 9.28948e-07, No Iterations 3
diagonal:  Solving for rho, Initial residual = 0, Final residual = 0, No Iterations 0
time step continuity errors : sum local = 7.64613e-08, global = 2.26924e-08, cumulative = -1.29728e-07
DILUPBiCGStab:  Solving for omega, Initial residual = 0.000153492, Final residual = 1.3144e-09, No Iterations 2
DILUPBiCGStab:  Solving for k, Initial residual = 0.00932844, Final residual = 5.69434e-09, No Iterations 3

ExecutionTime = 1.22 s  ClockTime = 1 s

    Overall     = 0.00184492, 0.01
Time = 259

diagonal:  Solving for rho, Initial residual = 0, Final residual = 0, No Iterations 0

Execution time for mesh.update() = 0 s

DILUPBiCGStab:  Solving for Ux, Initial residual = 0.00748682, Final residual = 8.18796e-09, No Iterations 3
DILUPBiCGStab:  Solving for Uy, Initial residual = 0.00720028, Final residual = 5.60594e-09, No Iterations 3
DILUPBiCGStab:  Solving for O2, Initial residual = 0.00387927, Final residual = 3.4941e-09, No Iterations 3
DILUPBiCGStab:  Solving for H2O, Initial residual = 0.00387928, Final residual = 3.49411e-09, No Iterations 3
DILUPBiCGStab:  Solving for CH4, Initial residual = 0, Final residual = 0, No Iterations 0
DILUPBiCGStab:  Solving for CO2, Initial residual = 0.00387928, Final residual = 3.49411e-09, No Iterations 3
DILUPBiCGStab:  Solving for h, Initial residual = 0.00442176, Final residual = 3.5832e-09, No Iterations 3
min/max(T) = 300, 1044.96
GAMGPCG:  Solving for p_rgh, Initial residual = 0.0186401, Final residual = 1.66792e-07, No Iterations 5
diagonal:  Solving for rho, Initial residual = 0, Final residual = 0, No Iterations 0
time step continuity errors : sum local = 1.4024e-08, global = -6.49418e-11, cumulative = -1.29793e-07
GAMGPCG:  Solving for p_rgh, Initial residual = 0.00274807, Final residual = 2.28779e-07, No Iterations 4
diagonal:  Solving for rho, Initial residual = 0, Final residual = 0, No Iterations 0
time step continuity errors : sum local = 1.90449e-08, global = 1.24547e-09, cumulative = -1.28548e-07
DILUPBiCGStab:  Solving for omega, Initial residual = 0.000153414, Final residual = 1.31385e-09, No Iterations 2
DILUPBiCGStab:  Solving for k, Initial residual = 0.00936432, Final residual = 6.3803e-09, No Iterations 3

ExecutionTime = 1.34 s  ClockTime = 2 s

    Overall     = 0.00183882, 0.01
Time = 260

diagonal:  Solving for rho, Initial residual = 0, Final residual = 0, No Iterations 0

Execution time for mesh.update() = 0 s

DILUPBiCGStab:  Solving for Ux, Initial residual = 0.00751879, Final residual = 7.52327e-09, No Iterations 3
DILUPBiCGStab:  Solving for Uy, Initial residual = 0.00719069, Final residual = 6.01434e-09, No Iterations 3
GAMGPCG:  Solving for G, Initial residual = 0.135197, Final residual = 4.16218e-05, No Iterations 6
DILUPBiCGStab:  Solving for O2, Initial residual = 0.00388777, Final residual = 3.98837e-09, No Iterations 3
DILUPBiCGStab:  Solving for H2O, Initial residual = 0.00388778, Final residual = 3.98836e-09, No Iterations 3
DILUPBiCGStab:  Solving for CH4, Initial residual = 0, Final residual = 0, No Iterations 0
DILUPBiCGStab:  Solving for CO2, Initial residual = 0.00388778, Final residual = 3.98836e-09, No Iterations 3
DILUPBiCGStab:  Solving for h, Initial residual = 0.00443369, Final residual = 4.14866e-09, No Iterations 3
min/max(T) = 300, 1044.96
GAMGPCG:  Solving for p_rgh, Initial residual = 0.0180631, Final residual = 1.85487e-07, No Iterations 5
diagonal:  Solving for rho, Initial residual = 0, Final residual = 0, No Iterations 0
time step continuity errors : sum local = 1.55265e-08, global = -8.35147e-10, cumulative = -1.29383e-07
GAMGPCG:  Solving for p_rgh, Initial residual = 0.00269482, Final residual = 2.21344e-07, No Iterations 4
diagonal:  Solving for rho, Initial residual = 0, Final residual = 0, No Iterations 0
time step continuity errors : sum local = 1.80608e-08, global = 1.90919e-09, cumulative = -1.27474e-07
DILUPBiCGStab:  Solving for omega, Initial residual = 0.000152451, Final residual = 1.25185e-09, No Iterations 2
DILUPBiCGStab:  Solving for k, Initial residual = 0.00940273, Final residual = 7.64689e-09, No Iterations 3

ExecutionTime = 1.59 s  ClockTime = 2 s

    Overall     = 0.00183366, 0.01
Time = 261

diagonal:  Solving for rho, Initial residual = 0, Final residual = 0, No Iterations 0

Execution time for mesh.update() = 0 s

DILUPBiCGStab:  Solving for Ux, Initial residual = 0.00753829, Final residual = 7.46529e-09, No Iterations 3
DILUPBiCGStab:  Solving for Uy, Initial residual = 0.00719897, Final residual = 6.81511e-09, No Iterations 3
DILUPBiCGStab:  Solving for O2, Initial residual = 0.00388732, Final residual = 3.74751e-09, No Iterations 3
DILUPBiCGStab:  Solving for H2O, Initial residual = 0.00388733, Final residual = 3.74753e-09, No Iterations 3
DILUPBiCGStab:  Solving for CH4, Initial residual = 0, Final residual = 0, No Iterations 0
DILUPBiCGStab:  Solving for CO2, Initial residual = 0.00388733, Final residual = 3.74753e-09, No Iterations 3
DILUPBiCGStab:  Solving for h, Initial residual = 0.00443581, Final residual = 3.86791e-09, No Iterations 3
min/max(T) = 300, 1044.96
GAMGPCG:  Solving for p_rgh, Initial residual = 0.0176729, Final residual = 2.23129e-07, No Iterations 5
diagonal:  Solving for rho, Initial residual = 0, Final residual = 0, No Iterations 0
time step continuity errors : sum local = 1.86364e-08, global = -7.66674e-10, cumulative = -1.2824e-07
GAMGPCG:  Solving for p_rgh, Initial residual = 0.00273687, Final residual = 2.09509e-07, No Iterations 4
diagonal:  Solving for rho, Initial residual = 0, Final residual = 0, No Iterations 0
time step continuity errors : sum local = 1.73119e-08, global = 2.16088e-09, cumulative = -1.26079e-07
DILUPBiCGStab:  Solving for omega, Initial residual = 0.000152602, Final residual = 1.25293e-09, No Iterations 2
DILUPBiCGStab:  Solving for k, Initial residual = 0.00943424, Final residual = 8.33115e-09, No Iterations 3

ExecutionTime = 1.71 s  ClockTime = 2 s

    Overall     = 0.00183132, 0.01
Time = 262

diagonal:  Solving for rho, Initial residual = 0, Final residual = 0, No Iterations 0

Execution time for mesh.update() = 0 s

DILUPBiCGStab:  Solving for Ux, Initial residual = 0.00756188, Final residual = 8.30107e-09, No Iterations 3
DILUPBiCGStab:  Solving for Uy, Initial residual = 0.0071745, Final residual = 6.42783e-09, No Iterations 3
DILUPBiCGStab:  Solving for O2, Initial residual = 0.00389788, Final residual = 4.5559e-09, No Iterations 3
DILUPBiCGStab:  Solving for H2O, Initial residual = 0.00389789, Final residual = 4.55592e-09, No Iterations 3
DILUPBiCGStab:  Solving for CH4, Initial residual = 0, Final residual = 0, No Iterations 0
DILUPBiCGStab:  Solving for CO2, Initial residual = 0.00389789, Final residual = 4.55592e-09, No Iterations 3
DILUPBiCGStab:  Solving for h, Initial residual = 0.00445081, Final residual = 4.75571e-09, No Iterations 3
min/max(T) = 300, 1044.96
GAMGPCG:  Solving for p_rgh, Initial residual = 0.0178555, Final residual = 2.32792e-07, No Iterations 5
diagonal:  Solving for rho, Initial residual = 0, Final residual = 0, No Iterations 0
time step continuity errors : sum local = 1.93643e-08, global = -1.04627e-09, cumulative = -1.27126e-07
GAMGPCG:  Solving for p_rgh, Initial residual = 0.00266281, Final residual = 1.94316e-07, No Iterations 4
diagonal:  Solving for rho, Initial residual = 0, Final residual = 0, No Iterations 0
time step continuity errors : sum local = 1.58231e-08, global = 2.1928e-09, cumulative = -1.24933e-07
DILUPBiCGStab:  Solving for omega, Initial residual = 0.000153688, Final residual = 1.23937e-09, No Iterations 2
DILUPBiCGStab:  Solving for k, Initial residual = 0.00944769, Final residual = 8.8325e-09, No Iterations 3

ExecutionTime = 1.83 s  ClockTime = 2 s

    Overall     = 0.00182691, 0.01
Time = 263

diagonal:  Solving for rho, Initial residual = 0, Final residual = 0, No Iterations 0

Execution time for mesh.update() = 0 s

DILUPBiCGStab:  Solving for Ux, Initial residual = 0.00759456, Final residual = 8.52579e-09, No Iterations 3
DILUPBiCGStab:  Solving for Uy, Initial residual = 0.00719757, Final residual = 7.21312e-09, No Iterations 3
DILUPBiCGStab:  Solving for O2, Initial residual = 0.00391281, Final residual = 4.55447e-09, No Iterations 3
DILUPBiCGStab:  Solving for H2O, Initial residual = 0.00391282, Final residual = 4.55445e-09, No Iterations 3
DILUPBiCGStab:  Solving for CH4, Initial residual = 0, Final residual = 0, No Iterations 0
DILUPBiCGStab:  Solving for CO2, Initial residual = 0.00391282, Final residual = 4.55445e-09, No Iterations 3
DILUPBiCGStab:  Solving for h, Initial residual = 0.00447332, Final residual = 4.70469e-09, No Iterations 3
min/max(T) = 300, 1044.96
GAMGPCG:  Solving for p_rgh, Initial residual = 0.018328, Final residual = 2.16785e-07, No Iterations 5
diagonal:  Solving for rho, Initial residual = 0, Final residual = 0, No Iterations 0
time step continuity errors : sum local = 1.81569e-08, global = -8.79461e-10, cumulative = -1.25812e-07
GAMGPCG:  Solving for p_rgh, Initial residual = 0.00270545, Final residual = 1.75797e-07, No Iterations 4
diagonal:  Solving for rho, Initial residual = 0, Final residual = 0, No Iterations 0
time step continuity errors : sum local = 1.42753e-08, global = 2.02676e-09, cumulative = -1.23786e-07
DILUPBiCGStab:  Solving for omega, Initial residual = 0.000151334, Final residual = 1.26215e-09, No Iterations 2
DILUPBiCGStab:  Solving for k, Initial residual = 0.00946192, Final residual = 9.50658e-09, No Iterations 3

ExecutionTime = 1.96 s  ClockTime = 2 s

    Overall     = 0.00182712, 0.01
Time = 264

diagonal:  Solving for rho, Initial residual = 0, Final residual = 0, No Iterations 0

Execution time for mesh.update() = 0 s

DILUPBiCGStab:  Solving for Ux, Initial residual = 0.00764254, Final residual = 8.8915e-09, No Iterations 3
DILUPBiCGStab:  Solving for Uy, Initial residual = 0.00724184, Final residual = 7.42087e-09, No Iterations 3
DILUPBiCGStab:  Solving for O2, Initial residual = 0.00392194, Final residual = 4.0258e-09, No Iterations 3
DILUPBiCGStab:  Solving for H2O, Initial residual = 0.00392195, Final residual = 4.0258e-09, No Iterations 3
DILUPBiCGStab:  Solving for CH4, Initial residual = 0, Final residual = 0, No Iterations 0
DILUPBiCGStab:  Solving for CO2, Initial residual = 0.00392195, Final residual = 4.02581e-09, No Iterations 3
DILUPBiCGStab:  Solving for h, Initial residual = 0.0044851, Final residual = 4.07259e-09, No Iterations 3
min/max(T) = 300, 1044.96
GAMGPCG:  Solving for p_rgh, Initial residual = 0.0175602, Final residual = 9.60283e-07, No Iterations 4
diagonal:  Solving for rho, Initial residual = 0, Final residual = 0, No Iterations 0
time step continuity errors : sum local = 7.9172e-08, global = -6.84069e-09, cumulative = -1.30626e-07
GAMGPCG:  Solving for p_rgh, Initial residual = 0.00278109, Final residual = 9.28199e-07, No Iterations 3
diagonal:  Solving for rho, Initial residual = 0, Final residual = 0, No Iterations 0
time step continuity errors : sum local = 7.44717e-08, global = 1.32741e-08, cumulative = -1.17352e-07
DILUPBiCGStab:  Solving for omega, Initial residual = 0.000155502, Final residual = 1.21609e-09, No Iterations 2
DILUPBiCGStab:  Solving for k, Initial residual = 0.00953531, Final residual = 9.39487e-09, No Iterations 3

ExecutionTime = 2.07 s  ClockTime = 2 s

    Overall     = 0.00182501, 0.01
Time = 265

diagonal:  Solving for rho, Initial residual = 0, Final residual = 0, No Iterations 0

Execution time for mesh.update() = 0 s

DILUPBiCGStab:  Solving for Ux, Initial residual = 0.00766282, Final residual = 9.2202e-09, No Iterations 3
DILUPBiCGStab:  Solving for Uy, Initial residual = 0.00722219, Final residual = 7.81227e-09, No Iterations 3
DILUPBiCGStab:  Solving for O2, Initial residual = 0.00394021, Final residual = 3.58817e-09, No Iterations 3
DILUPBiCGStab:  Solving for H2O, Initial residual = 0.00394021, Final residual = 3.58819e-09, No Iterations 3
DILUPBiCGStab:  Solving for CH4, Initial residual = 0, Final residual = 0, No Iterations 0
DILUPBiCGStab:  Solving for CO2, Initial residual = 0.00394021, Final residual = 3.58819e-09, No Iterations 3
DILUPBiCGStab:  Solving for h, Initial residual = 0.004507, Final residual = 3.5735e-09, No Iterations 3
min/max(T) = 300, 1044.96
GAMGPCG:  Solving for p_rgh, Initial residual = 0.0179519, Final residual = 8.08787e-07, No Iterations 4
diagonal:  Solving for rho, Initial residual = 0, Final residual = 0, No Iterations 0
time step continuity errors : sum local = 6.72882e-08, global = -5.60411e-09, cumulative = -1.22956e-07
GAMGPCG:  Solving for p_rgh, Initial residual = 0.00258733, Final residual = 9.60996e-07, No Iterations 3
diagonal:  Solving for rho, Initial residual = 0, Final residual = 0, No Iterations 0
time step continuity errors : sum local = 7.7063e-08, global = 1.18936e-08, cumulative = -1.11063e-07
DILUPBiCGStab:  Solving for omega, Initial residual = 0.000153842, Final residual = 1.2662e-09, No Iterations 2
DILUPBiCGStab:  Solving for k, Initial residual = 0.00959833, Final residual = 1.6801e-09, No Iterations 3

ExecutionTime = 2.19 s  ClockTime = 2 s

    Overall     = 0.00182376, 0.01
Time = 266

diagonal:  Solving for rho, Initial residual = 0, Final residual = 0, No Iterations 0

Execution time for mesh.update() = 0 s

DILUPBiCGStab:  Solving for Ux, Initial residual = 0.00772146, Final residual = 9.16921e-09, No Iterations 3
DILUPBiCGStab:  Solving for Uy, Initial residual = 0.00726068, Final residual = 7.84956e-09, No Iterations 3
DILUPBiCGStab:  Solving for O2, Initial residual = 0.00395254, Final residual = 3.43604e-09, No Iterations 3
DILUPBiCGStab:  Solving for H2O, Initial residual = 0.00395255, Final residual = 3.43604e-09, No Iterations 3
DILUPBiCGStab:  Solving for CH4, Initial residual = 0, Final residual = 0, No Iterations 0
DILUPBiCGStab:  Solving for CO2, Initial residual = 0.00395255, Final residual = 3.43604e-09, No Iterations 3
DILUPBiCGStab:  Solving for h, Initial residual = 0.00451926, Final residual = 3.49446e-09, No Iterations 3
min/max(T) = 300, 1044.96
GAMGPCG:  Solving for p_rgh, Initial residual = 0.0184855, Final residual = 7.46999e-07, No Iterations 4
diagonal:  Solving for rho, Initial residual = 0, Final residual = 0, No Iterations 0
time step continuity errors : sum local = 6.25953e-08, global = -6.10462e-09, cumulative = -1.17167e-07
GAMGPCG:  Solving for p_rgh, Initial residual = 0.00280063, Final residual = 9.039e-07, No Iterations 3
diagonal:  Solving for rho, Initial residual = 0, Final residual = 0, No Iterations 0
time step continuity errors : sum local = 7.22693e-08, global = 1.17899e-08, cumulative = -1.05377e-07
DILUPBiCGStab:  Solving for omega, Initial residual = 0.000154485, Final residual = 1.23995e-09, No Iterations 2
DILUPBiCGStab:  Solving for k, Initial residual = 0.00964371, Final residual = 5.77551e-10, No Iterations 3

ExecutionTime = 2.3 s  ClockTime = 3 s

    Overall     = 0.00182302, 0.01
Time = 267

diagonal:  Solving for rho, Initial residual = 0, Final residual = 0, No Iterations 0

Execution time for mesh.update() = 0 s

DILUPBiCGStab:  Solving for Ux, Initial residual = 0.00776482, Final residual = 9.2222e-09, No Iterations 3
DILUPBiCGStab:  Solving for Uy, Initial residual = 0.00730149, Final residual = 8.35332e-09, No Iterations 3
DILUPBiCGStab:  Solving for O2, Initial residual = 0.00396469, Final residual = 3.76926e-09, No Iterations 3
DILUPBiCGStab:  Solving for H2O, Initial residual = 0.00396469, Final residual = 3.76926e-09, No Iterations 3
DILUPBiCGStab:  Solving for CH4, Initial residual = 0, Final residual = 0, No Iterations 0
DILUPBiCGStab:  Solving for CO2, Initial residual = 0.00396469, Final residual = 3.76927e-09, No Iterations 3
DILUPBiCGStab:  Solving for h, Initial residual = 0.00453286, Final residual = 3.93919e-09, No Iterations 3
min/max(T) = 300, 1044.96
GAMGPCG:  Solving for p_rgh, Initial residual = 0.0182652, Final residual = 8.59695e-07, No Iterations 4
diagonal:  Solving for rho, Initial residual = 0, Final residual = 0, No Iterations 0
time step continuity errors : sum local = 7.13582e-08, global = -5.69587e-09, cumulative = -1.11073e-07
GAMGPCG:  Solving for p_rgh, Initial residual = 0.00274289, Final residual = 9.46345e-07, No Iterations 3
diagonal:  Solving for rho, Initial residual = 0, Final residual = 0, No Iterations 0
time step continuity errors : sum local = 7.52009e-08, global = 1.2528e-08, cumulative = -9.85453e-08
DILUPBiCGStab:  Solving for omega, Initial residual = 0.000153869, Final residual = 1.30529e-09, No Iterations 2
DILUPBiCGStab:  Solving for k, Initial residual = 0.00968084, Final residual = 8.01091e-10, No Iterations 3

ExecutionTime = 2.41 s  ClockTime = 3 s

    Overall     = 0.00182293, 0.01
Time = 268

diagonal:  Solving for rho, Initial residual = 0, Final residual = 0, No Iterations 0

Execution time for mesh.update() = 0 s

DILUPBiCGStab:  Solving for Ux, Initial residual = 0.00778012, Final residual = 9.00348e-09, No Iterations 3
DILUPBiCGStab:  Solving for Uy, Initial residual = 0.00730611, Final residual = 7.53158e-09, No Iterations 3
DILUPBiCGStab:  Solving for O2, Initial residual = 0.00398538, Final residual = 3.66146e-09, No Iterations 3
DILUPBiCGStab:  Solving for H2O, Initial residual = 0.00398539, Final residual = 3.66146e-09, No Iterations 3
DILUPBiCGStab:  Solving for CH4, Initial residual = 0, Final residual = 0, No Iterations 0
DILUPBiCGStab:  Solving for CO2, Initial residual = 0.00398539, Final residual = 3.66147e-09, No Iterations 3
DILUPBiCGStab:  Solving for h, Initial residual = 0.00455906, Final residual = 3.9027e-09, No Iterations 3
min/max(T) = 300, 1044.96
GAMGPCG:  Solving for p_rgh, Initial residual = 0.018688, Final residual = 7.95081e-07, No Iterations 4
diagonal:  Solving for rho, Initial residual = 0, Final residual = 0, No Iterations 0
time step continuity errors : sum local = 6.6939e-08, global = -2.17613e-09, cumulative = -1.00721e-07
GAMGPCG:  Solving for p_rgh, Initial residual = 0.00280946, Final residual = 9.34196e-07, No Iterations 3
diagonal:  Solving for rho, Initial residual = 0, Final residual = 0, No Iterations 0
time step continuity errors : sum local = 7.38138e-08, global = 9.34987e-09, cumulative = -9.13715e-08
DILUPBiCGStab:  Solving for omega, Initial residual = 0.000155612, Final residual = 1.1893e-09, No Iterations 2
DILUPBiCGStab:  Solving for k, Initial residual = 0.00971167, Final residual = 7.73645e-10, No Iterations 3

ExecutionTime = 2.53 s  ClockTime = 3 s

    Overall     = 0.00182237, 0.01
Time = 269

diagonal:  Solving for rho, Initial residual = 0, Final residual = 0, No Iterations 0

Execution time for mesh.update() = 0 s

DILUPBiCGStab:  Solving for Ux, Initial residual = 0.00783437, Final residual = 8.98424e-09, No Iterations 3
DILUPBiCGStab:  Solving for Uy, Initial residual = 0.00736869, Final residual = 8.17918e-09, No Iterations 3
DILUPBiCGStab:  Solving for O2, Initial residual = 0.00399855, Final residual = 3.05444e-09, No Iterations 3
DILUPBiCGStab:  Solving for H2O, Initial residual = 0.00399855, Final residual = 3.05446e-09, No Iterations 3
DILUPBiCGStab:  Solving for CH4, Initial residual = 0, Final residual = 0, No Iterations 0
DILUPBiCGStab:  Solving for CO2, Initial residual = 0.00399855, Final residual = 3.05446e-09, No Iterations 3
DILUPBiCGStab:  Solving for h, Initial residual = 0.0045761, Final residual = 3.21384e-09, No Iterations 3
min/max(T) = 300, 1044.96
GAMGPCG:  Solving for p_rgh, Initial residual = 0.0186723, Final residual = 9.23023e-07, No Iterations 4
diagonal:  Solving for rho, Initial residual = 0, Final residual = 0, No Iterations 0
time step continuity errors : sum local = 7.72067e-08, global = -2.40915e-09, cumulative = -9.37807e-08
GAMGPCG:  Solving for p_rgh, Initial residual = 0.00284175, Final residual = 9.23434e-07, No Iterations 3
diagonal:  Solving for rho, Initial residual = 0, Final residual = 0, No Iterations 0
time step continuity errors : sum local = 7.24047e-08, global = 8.88053e-09, cumulative = -8.49002e-08
DILUPBiCGStab:  Solving for omega, Initial residual = 0.000157102, Final residual = 1.28603e-09, No Iterations 2
DILUPBiCGStab:  Solving for k, Initial residual = 0.00978492, Final residual = 7.62598e-09, No Iterations 3

ExecutionTime = 2.64 s  ClockTime = 3 s

    Overall     = 0.00182293, 0.01
Time = 270

diagonal:  Solving for rho, Initial residual = 0, Final residual = 0, No Iterations 0

Execution time for mesh.update() = 0 s

DILUPBiCGStab:  Solving for Ux, Initial residual = 0.00786137, Final residual = 9.06915e-09, No Iterations 3
DILUPBiCGStab:  Solving for Uy, Initial residual = 0.00739626, Final residual = 7.46928e-09, No Iterations 3
GAMGPCG:  Solving for G, Initial residual = 0.132459, Final residual = 4.40158e-05, No Iterations 6
DILUPBiCGStab:  Solving for O2, Initial residual = 0.00401864, Final residual = 3.25878e-09, No Iterations 3
DILUPBiCGStab:  Solving for H2O, Initial residual = 0.00401864, Final residual = 3.25881e-09, No Iterations 3
DILUPBiCGStab:  Solving for CH4, Initial residual = 0, Final residual = 0, No Iterations 0
DILUPBiCGStab:  Solving for CO2, Initial residual = 0.00401864, Final residual = 3.25881e-09, No Iterations 3
DILUPBiCGStab:  Solving for h, Initial residual = 0.0046034, Final residual = 3.39431e-09, No Iterations 3
min/max(T) = 300, 1044.96
GAMGPCG:  Solving for p_rgh, Initial residual = 0.0189021, Final residual = 8.72777e-07, No Iterations 4
diagonal:  Solving for rho, Initial residual = 0, Final residual = 0, No Iterations 0
time step continuity errors : sum local = 7.37376e-08, global = 3.16487e-09, cumulative = -8.17353e-08
GAMGPCG:  Solving for p_rgh, Initial residual = 0.00282882, Final residual = 9.21059e-07, No Iterations 3
diagonal:  Solving for rho, Initial residual = 0, Final residual = 0, No Iterations 0
time step continuity errors : sum local = 7.16351e-08, global = 6.60285e-09, cumulative = -7.51324e-08
DILUPBiCGStab:  Solving for omega, Initial residual = 0.000156007, Final residual = 1.15481e-09, No Iterations 2
DILUPBiCGStab:  Solving for k, Initial residual = 0.00986128, Final residual = 3.37433e-09, No Iterations 3

ExecutionTime = 2.89 s  ClockTime = 3 s

    Overall     = 0.00182311, 0.01
Time = 271

diagonal:  Solving for rho, Initial residual = 0, Final residual = 0, No Iterations 0

Execution time for mesh.update() = 0 s

DILUPBiCGStab:  Solving for Ux, Initial residual = 0.00790399, Final residual = 8.83388e-09, No Iterations 3
DILUPBiCGStab:  Solving for Uy, Initial residual = 0.00745493, Final residual = 8.14266e-09, No Iterations 3
DILUPBiCGStab:  Solving for O2, Initial residual = 0.00402894, Final residual = 3.53488e-09, No Iterations 3
DILUPBiCGStab:  Solving for H2O, Initial residual = 0.00402894, Final residual = 3.53492e-09, No Iterations 3
DILUPBiCGStab:  Solving for CH4, Initial residual = 0, Final residual = 0, No Iterations 0
DILUPBiCGStab:  Solving for CO2, Initial residual = 0.00402894, Final residual = 3.53492e-09, No Iterations 3
DILUPBiCGStab:  Solving for h, Initial residual = 0.00461125, Final residual = 3.59752e-09, No Iterations 3
min/max(T) = 300, 1044.96
GAMGPCG:  Solving for p_rgh, Initial residual = 0.0191603, Final residual = 1.42513e-07, No Iterations 5
diagonal:  Solving for rho, Initial residual = 0, Final residual = 0, No Iterations 0
time step continuity errors : sum local = 1.17409e-08, global = -6.56937e-10, cumulative = -7.57894e-08
GAMGPCG:  Solving for p_rgh, Initial residual = 0.00289416, Final residual = 8.66898e-07, No Iterations 3
diagonal:  Solving for rho, Initial residual = 0, Final residual = 0, No Iterations 0
time step continuity errors : sum local = 6.75368e-08, global = 6.65937e-09, cumulative = -6.913e-08
DILUPBiCGStab:  Solving for omega, Initial residual = 0.000158859, Final residual = 1.21694e-09, No Iterations 2
DILUPBiCGStab:  Solving for k, Initial residual = 0.00991245, Final residual = 3.14437e-09, No Iterations 3

ExecutionTime = 3.01 s  ClockTime = 3 s

    Overall     = 0.00182231, 0.01
Time = 272

diagonal:  Solving for rho, Initial residual = 0, Final residual = 0, No Iterations 0

Execution time for mesh.update() = 0 s

DILUPBiCGStab:  Solving for Ux, Initial residual = 0.00792544, Final residual = 8.39901e-09, No Iterations 3
DILUPBiCGStab:  Solving for Uy, Initial residual = 0.00747631, Final residual = 8.41364e-09, No Iterations 3
DILUPBiCGStab:  Solving for O2, Initial residual = 0.00403504, Final residual = 3.69859e-09, No Iterations 3
DILUPBiCGStab:  Solving for H2O, Initial residual = 0.00403504, Final residual = 3.69862e-09, No Iterations 3
DILUPBiCGStab:  Solving for CH4, Initial residual = 0, Final residual = 0, No Iterations 0
DILUPBiCGStab:  Solving for CO2, Initial residual = 0.00403504, Final residual = 3.69862e-09, No Iterations 3
DILUPBiCGStab:  Solving for h, Initial residual = 0.00461716, Final residual = 3.79716e-09, No Iterations 3
min/max(T) = 300, 1044.96
GAMGPCG:  Solving for p_rgh, Initial residual = 0.0187915, Final residual = 1.64662e-07, No Iterations 5
diagonal:  Solving for rho, Initial residual = 0, Final residual = 0, No Iterations 0
time step continuity errors : sum local = 1.38422e-08, global = -1.14686e-09, cumulative = -7.02769e-08
GAMGPCG:  Solving for p_rgh, Initial residual = 0.00290246, Final residual = 2.04666e-07, No Iterations 4
diagonal:  Solving for rho, Initial residual = 0, Final residual = 0, No Iterations 0
time step continuity errors : sum local = 1.63336e-08, global = 2.09519e-09, cumulative = -6.81817e-08
DILUPBiCGStab:  Solving for omega, Initial residual = 0.000158575, Final residual = 1.17204e-09, No Iterations 2
DILUPBiCGStab:  Solving for k, Initial residual = 0.00993455, Final residual = 3.16935e-09, No Iterations 3

ExecutionTime = 3.13 s  ClockTime = 3 s

    Overall     = 0.00182184, 0.01
Time = 273

diagonal:  Solving for rho, Initial residual = 0, Final residual = 0, No Iterations 0

Execution time for mesh.update() = 0 s

DILUPBiCGStab:  Solving for Ux, Initial residual = 0.00797337, Final residual = 8.00062e-09, No Iterations 3
DILUPBiCGStab:  Solving for Uy, Initial residual = 0.00749345, Final residual = 8.58189e-09, No Iterations 3
DILUPBiCGStab:  Solving for O2, Initial residual = 0.0040455, Final residual = 3.47659e-09, No Iterations 3
DILUPBiCGStab:  Solving for H2O, Initial residual = 0.00404551, Final residual = 3.47662e-09, No Iterations 3
DILUPBiCGStab:  Solving for CH4, Initial residual = 0, Final residual = 0, No Iterations 0
DILUPBiCGStab:  Solving for CO2, Initial residual = 0.00404551, Final residual = 3.47662e-09, No Iterations 3
DILUPBiCGStab:  Solving for h, Initial residual = 0.00463099, Final residual = 3.64859e-09, No Iterations 3
min/max(T) = 300, 1044.96
GAMGPCG:  Solving for p_rgh, Initial residual = 0.0190843, Final residual = 1.90031e-07, No Iterations 5
diagonal:  Solving for rho, Initial residual = 0, Final residual = 0, No Iterations 0
time step continuity errors : sum local = 1.57267e-08, global = -1.676e-09, cumulative = -6.98577e-08
GAMGPCG:  Solving for p_rgh, Initial residual = 0.00282296, Final residual = 2.28596e-07, No Iterations 4
diagonal:  Solving for rho, Initial residual = 0, Final residual = 0, No Iterations 0
time step continuity errors : sum local = 1.8201e-08, global = 2.04399e-09, cumulative = -6.78137e-08
DILUPBiCGStab:  Solving for omega, Initial residual = 0.000157725, Final residual = 1.23749e-09, No Iterations 2
DILUPBiCGStab:  Solving for k, Initial residual = 0.00998373, Final residual = 3.56092e-09, No Iterations 3

ExecutionTime = 3.25 s  ClockTime = 3 s

    Overall     = 0.00182203, 0.01
Time = 274

diagonal:  Solving for rho, Initial residual = 0, Final residual = 0, No Iterations 0

Execution time for mesh.update() = 0 s

DILUPBiCGStab:  Solving for Ux, Initial residual = 0.00800922, Final residual = 7.6607e-09, No Iterations 3
DILUPBiCGStab:  Solving for Uy, Initial residual = 0.00754267, Final residual = 9.00625e-09, No Iterations 3
DILUPBiCGStab:  Solving for O2, Initial residual = 0.00405451, Final residual = 3.50104e-09, No Iterations 3
DILUPBiCGStab:  Solving for H2O, Initial residual = 0.00405452, Final residual = 3.50106e-09, No Iterations 3
DILUPBiCGStab:  Solving for CH4, Initial residual = 0, Final residual = 0, No Iterations 0
DILUPBiCGStab:  Solving for CO2, Initial residual = 0.00405452, Final residual = 3.50106e-09, No Iterations 3
DILUPBiCGStab:  Solving for h, Initial residual = 0.00464, Final residual = 3.64151e-09, No Iterations 3
min/max(T) = 300, 1044.96
GAMGPCG:  Solving for p_rgh, Initial residual = 0.0192996, Final residual = 2.09205e-07, No Iterations 5
diagonal:  Solving for rho, Initial residual = 0, Final residual = 0, No Iterations 0
time step continuity errors : sum local = 1.73088e-08, global = -2.31691e-09, cumulative = -7.01306e-08
GAMGPCG:  Solving for p_rgh, Initial residual = 0.00298112, Final residual = 2.38575e-07, No Iterations 4
diagonal:  Solving for rho, Initial residual = 0, Final residual = 0, No Iterations 0
time step continuity errors : sum local = 1.91627e-08, global = 2.48713e-09, cumulative = -6.76434e-08
DILUPBiCGStab:  Solving for omega, Initial residual = 0.000160125, Final residual = 1.25492e-09, No Iterations 2
DILUPBiCGStab:  Solving for k, Initial residual = 0.0100919, Final residual = 4.19428e-09, No Iterations 3

ExecutionTime = 3.37 s  ClockTime = 4 s

    Overall     = 0.00182264, 0.01
Time = 275

diagonal:  Solving for rho, Initial residual = 0, Final residual = 0, No Iterations 0

Execution time for mesh.update() = 0 s

DILUPBiCGStab:  Solving for Ux, Initial residual = 0.00803251, Final residual = 7.35112e-09, No Iterations 3
DILUPBiCGStab:  Solving for Uy, Initial residual = 0.00756696, Final residual = 8.44927e-09, No Iterations 3
DILUPBiCGStab:  Solving for O2, Initial residual = 0.00405751, Final residual = 3.45266e-09, No Iterations 3
DILUPBiCGStab:  Solving for H2O, Initial residual = 0.00405752, Final residual = 3.45266e-09, No Iterations 3
DILUPBiCGStab:  Solving for CH4, Initial residual = 0, Final residual = 0, No Iterations 0
DILUPBiCGStab:  Solving for CO2, Initial residual = 0.00405752, Final residual = 3.45267e-09, No Iterations 3
DILUPBiCGStab:  Solving for h, Initial residual = 0.00464234, Final residual = 3.59893e-09, No Iterations 3
min/max(T) = 300, 1044.96
GAMGPCG:  Solving for p_rgh, Initial residual = 0.0191333, Final residual = 1.97415e-07, No Iterations 5
diagonal:  Solving for rho, Initial residual = 0, Final residual = 0, No Iterations 0
time step continuity errors : sum local = 1.63619e-08, global = -2.30702e-09, cumulative = -6.99505e-08
GAMGPCG:  Solving for p_rgh, Initial residual = 0.00301467, Final residual = 2.33918e-07, No Iterations 4
diagonal:  Solving for rho, Initial residual = 0, Final residual = 0, No Iterations 0
time step continuity errors : sum local = 1.86081e-08, global = 1.82762e-09, cumulative = -6.81228e-08
DILUPBiCGStab:  Solving for omega, Initial residual = 0.000160901, Final residual = 1.22806e-09, No Iterations 2
DILUPBiCGStab:  Solving for k, Initial residual = 0.010161, Final residual = 3.36202e-09, No Iterations 3

ExecutionTime = 3.49 s  ClockTime = 4 s

    Overall     = 0.00182361, 0.01
Time = 276

diagonal:  Solving for rho, Initial residual = 0, Final residual = 0, No Iterations 0

Execution time for mesh.update() = 0 s

DILUPBiCGStab:  Solving for Ux, Initial residual = 0.00806628, Final residual = 7.03213e-09, No Iterations 3
DILUPBiCGStab:  Solving for Uy, Initial residual = 0.00757913, Final residual = 8.31259e-09, No Iterations 3
DILUPBiCGStab:  Solving for O2, Initial residual = 0.00406501, Final residual = 3.43311e-09, No Iterations 3
DILUPBiCGStab:  Solving for H2O, Initial residual = 0.00406502, Final residual = 3.43312e-09, No Iterations 3
DILUPBiCGStab:  Solving for CH4, Initial residual = 0, Final residual = 0, No Iterations 0
DILUPBiCGStab:  Solving for CO2, Initial residual = 0.00406502, Final residual = 3.43312e-09, No Iterations 3
DILUPBiCGStab:  Solving for h, Initial residual = 0.00465278, Final residual = 3.60521e-09, No Iterations 3
min/max(T) = 300, 1044.96
GAMGPCG:  Solving for p_rgh, Initial residual = 0.0198575, Final residual = 1.75746e-07, No Iterations 5
diagonal:  Solving for rho, Initial residual = 0, Final residual = 0, No Iterations 0
time step continuity errors : sum local = 1.44891e-08, global = -2.4336e-09, cumulative = -7.05564e-08
GAMGPCG:  Solving for p_rgh, Initial residual = 0.00296035, Final residual = 2.34899e-07, No Iterations 4
diagonal:  Solving for rho, Initial residual = 0, Final residual = 0, No Iterations 0
time step continuity errors : sum local = 1.86929e-08, global = 1.85649e-09, cumulative = -6.87e-08
DILUPBiCGStab:  Solving for omega, Initial residual = 0.000159736, Final residual = 1.3012e-09, No Iterations 2
DILUPBiCGStab:  Solving for k, Initial residual = 0.0102104, Final residual = 3.33372e-09, No Iterations 3

ExecutionTime = 3.61 s  ClockTime = 4 s

    Overall     = 0.00182506, 0.01
Time = 277

diagonal:  Solving for rho, Initial residual = 0, Final residual = 0, No Iterations 0

Execution time for mesh.update() = 0 s

DILUPBiCGStab:  Solving for Ux, Initial residual = 0.00812117, Final residual = 6.63937e-09, No Iterations 3
DILUPBiCGStab:  Solving for Uy, Initial residual = 0.00763563, Final residual = 8.60723e-09, No Iterations 3
DILUPBiCGStab:  Solving for O2, Initial residual = 0.00406499, Final residual = 3.34688e-09, No Iterations 3
DILUPBiCGStab:  Solving for H2O, Initial residual = 0.00406499, Final residual = 3.34689e-09, No Iterations 3
DILUPBiCGStab:  Solving for CH4, Initial residual = 0, Final residual = 0, No Iterations 0
DILUPBiCGStab:  Solving for CO2, Initial residual = 0.00406499, Final residual = 3.34689e-09, No Iterations 3
DILUPBiCGStab:  Solving for h, Initial residual = 0.00464925, Final residual = 3.48108e-09, No Iterations 3
min/max(T) = 300, 1044.96
GAMGPCG:  Solving for p_rgh, Initial residual = 0.0194594, Final residual = 1.56698e-07, No Iterations 5
diagonal:  Solving for rho, Initial residual = 0, Final residual = 0, No Iterations 0
time step continuity errors : sum local = 1.29586e-08, global = -1.61832e-09, cumulative = -7.03183e-08
GAMGPCG:  Solving for p_rgh, Initial residual = 0.00312326, Final residual = 2.15576e-07, No Iterations 4
diagonal:  Solving for rho, Initial residual = 0, Final residual = 0, No Iterations 0
time step continuity errors : sum local = 1.71435e-08, global = 1.19863e-09, cumulative = -6.91196e-08
DILUPBiCGStab:  Solving for omega, Initial residual = 0.000161134, Final residual = 1.22343e-09, No Iterations 2
DILUPBiCGStab:  Solving for k, Initial residual = 0.0102737, Final residual = 3.51219e-09, No Iterations 3

ExecutionTime = 3.73 s  ClockTime = 4 s

    Overall     = 0.00182637, 0.01
Time = 278

diagonal:  Solving for rho, Initial residual = 0, Final residual = 0, No Iterations 0

Execution time for mesh.update() = 0 s

DILUPBiCGStab:  Solving for Ux, Initial residual = 0.00815132, Final residual = 6.05207e-09, No Iterations 3
DILUPBiCGStab:  Solving for Uy, Initial residual = 0.00763145, Final residual = 7.63458e-09, No Iterations 3
DILUPBiCGStab:  Solving for O2, Initial residual = 0.00407446, Final residual = 3.21541e-09, No Iterations 3
DILUPBiCGStab:  Solving for H2O, Initial residual = 0.00407446, Final residual = 3.21542e-09, No Iterations 3
DILUPBiCGStab:  Solving for CH4, Initial residual = 0, Final residual = 0, No Iterations 0
DILUPBiCGStab:  Solving for CO2, Initial residual = 0.00407446, Final residual = 3.21543e-09, No Iterations 3
DILUPBiCGStab:  Solving for h, Initial residual = 0.00466544, Final residual = 3.36545e-09, No Iterations 3
min/max(T) = 300, 1044.96
GAMGPCG:  Solving for p_rgh, Initial residual = 0.020053, Final residual = 9.37657e-07, No Iterations 4
diagonal:  Solving for rho, Initial residual = 0, Final residual = 0, No Iterations 0
time step continuity errors : sum local = 7.69587e-08, global = -3.72142e-09, cumulative = -7.28411e-08
GAMGPCG:  Solving for p_rgh, Initial residual = 0.00302821, Final residual = 2.25449e-07, No Iterations 4
diagonal:  Solving for rho, Initial residual = 0, Final residual = 0, No Iterations 0
time step continuity errors : sum local = 1.80749e-08, global = 1.34802e-09, cumulative = -7.1493e-08
DILUPBiCGStab:  Solving for omega, Initial residual = 0.000160941, Final residual = 1.28442e-09, No Iterations 2
DILUPBiCGStab:  Solving for k, Initial residual = 0.0103524, Final residual = 4.48847e-09, No Iterations 3

ExecutionTime = 3.85 s  ClockTime = 4 s

    Overall     = 0.00182843, 0.01
Time = 279

diagonal:  Solving for rho, Initial residual = 0, Final residual = 0, No Iterations 0

Execution time for mesh.update() = 0 s

DILUPBiCGStab:  Solving for Ux, Initial residual = 0.00822177, Final residual = 5.72691e-09, No Iterations 3
DILUPBiCGStab:  Solving for Uy, Initial residual = 0.00767854, Final residual = 7.05378e-09, No Iterations 3
DILUPBiCGStab:  Solving for O2, Initial residual = 0.0040764, Final residual = 3.04045e-09, No Iterations 3
DILUPBiCGStab:  Solving for H2O, Initial residual = 0.0040764, Final residual = 3.04046e-09, No Iterations 3
DILUPBiCGStab:  Solving for CH4, Initial residual = 0, Final residual = 0, No Iterations 0
DILUPBiCGStab:  Solving for CO2, Initial residual = 0.0040764, Final residual = 3.04047e-09, No Iterations 3
DILUPBiCGStab:  Solving for h, Initial residual = 0.00466208, Final residual = 3.14065e-09, No Iterations 3
min/max(T) = 300, 1044.96
GAMGPCG:  Solving for p_rgh, Initial residual = 0.0200898, Final residual = 9.78788e-07, No Iterations 4
diagonal:  Solving for rho, Initial residual = 0, Final residual = 0, No Iterations 0
time step continuity errors : sum local = 7.93196e-08, global = -4.65357e-09, cumulative = -7.61466e-08
GAMGPCG:  Solving for p_rgh, Initial residual = 0.00317853, Final residual = 2.26107e-07, No Iterations 4
diagonal:  Solving for rho, Initial residual = 0, Final residual = 0, No Iterations 0
time step continuity errors : sum local = 1.79568e-08, global = 8.95585e-10, cumulative = -7.5251e-08
DILUPBiCGStab:  Solving for omega, Initial residual = 0.000160445, Final residual = 1.18529e-09, No Iterations 2
DILUPBiCGStab:  Solving for k, Initial residual = 0.0104379, Final residual = 7.23495e-09, No Iterations 3

ExecutionTime = 3.96 s  ClockTime = 4 s

    Overall     = 0.00182992, 0.01
Time = 280

diagonal:  Solving for rho, Initial residual = 0, Final residual = 0, No Iterations 0

Execution time for mesh.update() = 0.01 s

DILUPBiCGStab:  Solving for Ux, Initial residual = 0.00823689, Final residual = 5.20725e-09, No Iterations 3
DILUPBiCGStab:  Solving for Uy, Initial residual = 0.00769452, Final residual = 6.28479e-09, No Iterations 3
GAMGPCG:  Solving for G, Initial residual = 0.142721, Final residual = 3.95116e-05, No Iterations 6
DILUPBiCGStab:  Solving for O2, Initial residual = 0.00406781, Final residual = 2.90083e-09, No Iterations 3
DILUPBiCGStab:  Solving for H2O, Initial residual = 0.00406782, Final residual = 2.90084e-09, No Iterations 3
DILUPBiCGStab:  Solving for CH4, Initial residual = 0, Final residual = 0, No Iterations 0
DILUPBiCGStab:  Solving for CO2, Initial residual = 0.00406782, Final residual = 2.90084e-09, No Iterations 3
DILUPBiCGStab:  Solving for h, Initial residual = 0.00465252, Final residual = 3.00227e-09, No Iterations 3
min/max(T) = 300, 1044.96
GAMGPCG:  Solving for p_rgh, Initial residual = 0.0196234, Final residual = 9.98531e-07, No Iterations 4
diagonal:  Solving for rho, Initial residual = 0, Final residual = 0, No Iterations 0
time step continuity errors : sum local = 8.06521e-08, global = -5.66805e-09, cumulative = -8.09191e-08
GAMGPCG:  Solving for p_rgh, Initial residual = 0.0031386, Final residual = 2.42483e-07, No Iterations 4
diagonal:  Solving for rho, Initial residual = 0, Final residual = 0, No Iterations 0
time step continuity errors : sum local = 1.94062e-08, global = 1.29718e-09, cumulative = -7.96219e-08
DILUPBiCGStab:  Solving for omega, Initial residual = 0.000161565, Final residual = 1.16179e-09, No Iterations 2
DILUPBiCGStab:  Solving for k, Initial residual = 0.0105317, Final residual = 6.65156e-09, No Iterations 3

ExecutionTime = 4.22 s  ClockTime = 4 s

    Overall     = 0.00183231, 0.01
Time = 281

diagonal:  Solving for rho, Initial residual = 0, Final residual = 0, No Iterations 0

Execution time for mesh.update() = 0.01 s

DILUPBiCGStab:  Solving for Ux, Initial residual = 0.00826351, Final residual = 4.80204e-09, No Iterations 3
DILUPBiCGStab:  Solving for Uy, Initial residual = 0.00769271, Final residual = 5.13367e-09, No Iterations 3
DILUPBiCGStab:  Solving for O2, Initial residual = 0.00405969, Final residual = 2.70181e-09, No Iterations 3
DILUPBiCGStab:  Solving for H2O, Initial residual = 0.0040597, Final residual = 2.70182e-09, No Iterations 3
DILUPBiCGStab:  Solving for CH4, Initial residual = 0, Final residual = 0, No Iterations 0
DILUPBiCGStab:  Solving for CO2, Initial residual = 0.00405969, Final residual = 2.70182e-09, No Iterations 3
DILUPBiCGStab:  Solving for h, Initial residual = 0.00464689, Final residual = 2.75927e-09, No Iterations 3
min/max(T) = 300, 1044.96
GAMGPCG:  Solving for p_rgh, Initial residual = 0.0201293, Final residual = 1.57596e-07, No Iterations 5
diagonal:  Solving for rho, Initial residual = 0, Final residual = 0, No Iterations 0
time step continuity errors : sum local = 1.27117e-08, global = -8.13499e-10, cumulative = -8.04354e-08
GAMGPCG:  Solving for p_rgh, Initial residual = 0.00317258, Final residual = 2.62817e-07, No Iterations 4
diagonal:  Solving for rho, Initial residual = 0, Final residual = 0, No Iterations 0
time step continuity errors : sum local = 2.07875e-08, global = 1.22124e-09, cumulative = -7.92141e-08
DILUPBiCGStab:  Solving for omega, Initial residual = 0.000164527, Final residual = 1.09432e-09, No Iterations 2
DILUPBiCGStab:  Solving for k, Initial residual = 0.0105744, Final residual = 7.06741e-09, No Iterations 3

ExecutionTime = 4.34 s  ClockTime = 5 s

    Overall     = 0.00183363, 0.01
Time = 282

diagonal:  Solving for rho, Initial residual = 0, Final residual = 0, No Iterations 0

Execution time for mesh.update() = 0.01 s

DILUPBiCGStab:  Solving for Ux, Initial residual = 0.00829142, Final residual = 4.3797e-09, No Iterations 3
DILUPBiCGStab:  Solving for Uy, Initial residual = 0.00775481, Final residual = 4.53218e-09, No Iterations 3
DILUPBiCGStab:  Solving for O2, Initial residual = 0.00405513, Final residual = 2.46057e-09, No Iterations 3
DILUPBiCGStab:  Solving for H2O, Initial residual = 0.00405514, Final residual = 2.46058e-09, No Iterations 3
DILUPBiCGStab:  Solving for CH4, Initial residual = 0, Final residual = 0, No Iterations 0
DILUPBiCGStab:  Solving for CO2, Initial residual = 0.00405514, Final residual = 2.46058e-09, No Iterations 3
DILUPBiCGStab:  Solving for h, Initial residual = 0.00464231, Final residual = 2.59311e-09, No Iterations 3
min/max(T) = 300, 1044.96
GAMGPCG:  Solving for p_rgh, Initial residual = 0.0204094, Final residual = 9.14278e-07, No Iterations 4
diagonal:  Solving for rho, Initial residual = 0, Final residual = 0, No Iterations 0
time step continuity errors : sum local = 7.39737e-08, global = -5.48781e-09, cumulative = -8.4702e-08
GAMGPCG:  Solving for p_rgh, Initial residual = 0.00331869, Final residual = 2.67631e-07, No Iterations 4
diagonal:  Solving for rho, Initial residual = 0, Final residual = 0, No Iterations 0
time step continuity errors : sum local = 2.10636e-08, global = 1.76421e-09, cumulative = -8.29377e-08
DILUPBiCGStab:  Solving for omega, Initial residual = 0.000162428, Final residual = 1.0842e-09, No Iterations 2
DILUPBiCGStab:  Solving for k, Initial residual = 0.0105696, Final residual = 7.46636e-09, No Iterations 3

ExecutionTime = 4.46 s  ClockTime = 5 s

    Overall     = 0.00183439, 0.01
Time = 283

diagonal:  Solving for rho, Initial residual = 0, Final residual = 0, No Iterations 0

Execution time for mesh.update() = 0 s

DILUPBiCGStab:  Solving for Ux, Initial residual = 0.00831495, Final residual = 3.83362e-09, No Iterations 3
DILUPBiCGStab:  Solving for Uy, Initial residual = 0.00778349, Final residual = 4.30563e-09, No Iterations 3
DILUPBiCGStab:  Solving for O2, Initial residual = 0.00404257, Final residual = 2.22222e-09, No Iterations 3
DILUPBiCGStab:  Solving for H2O, Initial residual = 0.00404258, Final residual = 2.22223e-09, No Iterations 3
DILUPBiCGStab:  Solving for CH4, Initial residual = 0, Final residual = 0, No Iterations 0
DILUPBiCGStab:  Solving for CO2, Initial residual = 0.00404258, Final residual = 2.22224e-09, No Iterations 3
DILUPBiCGStab:  Solving for h, Initial residual = 0.00462881, Final residual = 2.33362e-09, No Iterations 3
min/max(T) = 300, 1044.96
GAMGPCG:  Solving for p_rgh, Initial residual = 0.0208638, Final residual = 1.67168e-07, No Iterations 5
diagonal:  Solving for rho, Initial residual = 0, Final residual = 0, No Iterations 0
time step continuity errors : sum local = 1.35073e-08, global = -1.35607e-09, cumulative = -8.42938e-08
GAMGPCG:  Solving for p_rgh, Initial residual = 0.00328254, Final residual = 2.71945e-07, No Iterations 4
diagonal:  Solving for rho, Initial residual = 0, Final residual = 0, No Iterations 0
time step continuity errors : sum local = 2.1246e-08, global = 1.74402e-09, cumulative = -8.25498e-08
DILUPBiCGStab:  Solving for omega, Initial residual = 0.000160587, Final residual = 1.04605e-09, No Iterations 2
DILUPBiCGStab:  Solving for k, Initial residual = 0.0105928, Final residual = 7.49532e-09, No Iterations 3

ExecutionTime = 4.58 s  ClockTime = 5 s

    Overall     = 0.00183684, 0.01
Time = 284

diagonal:  Solving for rho, Initial residual = 0, Final residual = 0, No Iterations 0

Execution time for mesh.update() = 0 s

DILUPBiCGStab:  Solving for Ux, Initial residual = 0.00836363, Final residual = 3.61341e-09, No Iterations 3
DILUPBiCGStab:  Solving for Uy, Initial residual = 0.00782273, Final residual = 4.15478e-09, No Iterations 3
DILUPBiCGStab:  Solving for O2, Initial residual = 0.00404234, Final residual = 2.04269e-09, No Iterations 3
DILUPBiCGStab:  Solving for H2O, Initial residual = 0.00404235, Final residual = 2.0427e-09, No Iterations 3
DILUPBiCGStab:  Solving for CH4, Initial residual = 0, Final residual = 0, No Iterations 0
DILUPBiCGStab:  Solving for CO2, Initial residual = 0.00404235, Final residual = 2.0427e-09, No Iterations 3
DILUPBiCGStab:  Solving for h, Initial residual = 0.00462915, Final residual = 2.20599e-09, No Iterations 3
min/max(T) = 300, 1044.96
GAMGPCG:  Solving for p_rgh, Initial residual = 0.0206512, Final residual = 9.15194e-07, No Iterations 4
diagonal:  Solving for rho, Initial residual = 0, Final residual = 0, No Iterations 0
time step continuity errors : sum local = 7.34207e-08, global = -4.60188e-09, cumulative = -8.71517e-08
GAMGPCG:  Solving for p_rgh, Initial residual = 0.00332913, Final residual = 2.73904e-07, No Iterations 4
diagonal:  Solving for rho, Initial residual = 0, Final residual = 0, No Iterations 0
time step continuity errors : sum local = 2.15235e-08, global = 1.71849e-09, cumulative = -8.54332e-08
DILUPBiCGStab:  Solving for omega, Initial residual = 0.00016585, Final residual = 1.07841e-09, No Iterations 2
DILUPBiCGStab:  Solving for k, Initial residual = 0.0106652, Final residual = 7.517e-09, No Iterations 3

ExecutionTime = 4.7 s  ClockTime = 5 s

    Overall     = 0.00183419, 0.01
Time = 285

diagonal:  Solving for rho, Initial residual = 0, Final residual = 0, No Iterations 0

Execution time for mesh.update() = 0 s

DILUPBiCGStab:  Solving for Ux, Initial residual = 0.0083898, Final residual = 4.04142e-09, No Iterations 3
DILUPBiCGStab:  Solving for Uy, Initial residual = 0.00782644, Final residual = 3.87881e-09, No Iterations 3
DILUPBiCGStab:  Solving for O2, Initial residual = 0.00402853, Final residual = 1.91595e-09, No Iterations 3
DILUPBiCGStab:  Solving for H2O, Initial residual = 0.00402853, Final residual = 1.91596e-09, No Iterations 3
DILUPBiCGStab:  Solving for CH4, Initial residual = 0, Final residual = 0, No Iterations 0
DILUPBiCGStab:  Solving for CO2, Initial residual = 0.00402853, Final residual = 1.91596e-09, No Iterations 3
DILUPBiCGStab:  Solving for h, Initial residual = 0.00461868, Final residual = 2.06684e-09, No Iterations 3
min/max(T) = 300, 1044.96
GAMGPCG:  Solving for p_rgh, Initial residual = 0.0204532, Final residual = 1.6087e-07, No Iterations 5
diagonal:  Solving for rho, Initial residual = 0, Final residual = 0, No Iterations 0
time step continuity errors : sum local = 1.31692e-08, global = -1.87323e-09, cumulative = -8.73064e-08
GAMGPCG:  Solving for p_rgh, Initial residual = 0.00335154, Final residual = 2.78851e-07, No Iterations 4
diagonal:  Solving for rho, Initial residual = 0, Final residual = 0, No Iterations 0
time step continuity errors : sum local = 2.18601e-08, global = 2.1551e-09, cumulative = -8.51513e-08
DILUPBiCGStab:  Solving for omega, Initial residual = 0.000162747, Final residual = 1.01365e-09, No Iterations 2
DILUPBiCGStab:  Solving for k, Initial residual = 0.0107263, Final residual = 9.43908e-09, No Iterations 3

ExecutionTime = 4.82 s  ClockTime = 5 s

    Overall     = 0.00183543, 0.01
Time = 286

diagonal:  Solving for rho, Initial residual = 0, Final residual = 0, No Iterations 0

Execution time for mesh.update() = 0 s

DILUPBiCGStab:  Solving for Ux, Initial residual = 0.00841417, Final residual = 5.93619e-09, No Iterations 3
DILUPBiCGStab:  Solving for Uy, Initial residual = 0.00781831, Final residual = 3.58121e-09, No Iterations 3
DILUPBiCGStab:  Solving for O2, Initial residual = 0.00402141, Final residual = 1.84013e-09, No Iterations 3
DILUPBiCGStab:  Solving for H2O, Initial residual = 0.00402142, Final residual = 1.84014e-09, No Iterations 3
DILUPBiCGStab:  Solving for CH4, Initial residual = 0, Final residual = 0, No Iterations 0
DILUPBiCGStab:  Solving for CO2, Initial residual = 0.00402142, Final residual = 1.84014e-09, No Iterations 3
DILUPBiCGStab:  Solving for h, Initial residual = 0.00461669, Final residual = 2.0409e-09, No Iterations 3
min/max(T) = 300, 1044.96
GAMGPCG:  Solving for p_rgh, Initial residual = 0.0211233, Final residual = 9.64525e-07, No Iterations 4
diagonal:  Solving for rho, Initial residual = 0, Final residual = 0, No Iterations 0
time step continuity errors : sum local = 7.58448e-08, global = -5.61954e-09, cumulative = -9.07709e-08
GAMGPCG:  Solving for p_rgh, Initial residual = 0.00318192, Final residual = 2.95062e-07, No Iterations 4
diagonal:  Solving for rho, Initial residual = 0, Final residual = 0, No Iterations 0
time step continuity errors : sum local = 2.30305e-08, global = 3.05908e-09, cumulative = -8.77118e-08
DILUPBiCGStab:  Solving for omega, Initial residual = 0.000161899, Final residual = 1.02907e-09, No Iterations 2
DILUPBiCGStab:  Solving for k, Initial residual = 0.0107547, Final residual = 9.13674e-09, No Iterations 3

ExecutionTime = 4.93 s  ClockTime = 5 s

    Overall     = 0.00183361, 0.01
Time = 287

diagonal:  Solving for rho, Initial residual = 0, Final residual = 0, No Iterations 0

Execution time for mesh.update() = 0 s

DILUPBiCGStab:  Solving for Ux, Initial residual = 0.00844132, Final residual = 9.01313e-10, No Iterations 3
DILUPBiCGStab:  Solving for Uy, Initial residual = 0.00783496, Final residual = 3.48701e-09, No Iterations 3
DILUPBiCGStab:  Solving for O2, Initial residual = 0.00399854, Final residual = 1.7478e-09, No Iterations 3
DILUPBiCGStab:  Solving for H2O, Initial residual = 0.00399855, Final residual = 1.74781e-09, No Iterations 3
DILUPBiCGStab:  Solving for CH4, Initial residual = 0, Final residual = 0, No Iterations 0
DILUPBiCGStab:  Solving for CO2, Initial residual = 0.00399855, Final residual = 1.74782e-09, No Iterations 3
DILUPBiCGStab:  Solving for h, Initial residual = 0.00458488, Final residual = 1.97872e-09, No Iterations 3
min/max(T) = 300, 1044.96
GAMGPCG:  Solving for p_rgh, Initial residual = 0.0206006, Final residual = 1.93473e-07, No Iterations 5
diagonal:  Solving for rho, Initial residual = 0, Final residual = 0, No Iterations 0
time step continuity errors : sum local = 1.58886e-08, global = -2.58592e-09, cumulative = -9.02977e-08
GAMGPCG:  Solving for p_rgh, Initial residual = 0.00336281, Final residual = 3.14395e-07, No Iterations 4
diagonal:  Solving for rho, Initial residual = 0, Final residual = 0, No Iterations 0
time step continuity errors : sum local = 2.45557e-08, global = 3.16461e-09, cumulative = -8.71331e-08
DILUPBiCGStab:  Solving for omega, Initial residual = 0.000163053, Final residual = 1.05259e-09, No Iterations 2
DILUPBiCGStab:  Solving for k, Initial residual = 0.0107907, Final residual = 9.22223e-09, No Iterations 3

ExecutionTime = 5.05 s  ClockTime = 5 s

    Overall     = 0.00183519, 0.01
Time = 288

diagonal:  Solving for rho, Initial residual = 0, Final residual = 0, No Iterations 0

Execution time for mesh.update() = 0 s

DILUPBiCGStab:  Solving for Ux, Initial residual = 0.00844091, Final residual = 2.73737e-09, No Iterations 3
DILUPBiCGStab:  Solving for Uy, Initial residual = 0.00781193, Final residual = 3.24831e-09, No Iterations 3
DILUPBiCGStab:  Solving for O2, Initial residual = 0.00398208, Final residual = 1.76708e-09, No Iterations 3
DILUPBiCGStab:  Solving for H2O, Initial residual = 0.00398208, Final residual = 1.7671e-09, No Iterations 3
DILUPBiCGStab:  Solving for CH4, Initial residual = 0, Final residual = 0, No Iterations 0
DILUPBiCGStab:  Solving for CO2, Initial residual = 0.00398208, Final residual = 1.7671e-09, No Iterations 3
DILUPBiCGStab:  Solving for h, Initial residual = 0.0045717, Final residual = 2.06549e-09, No Iterations 3
min/max(T) = 300, 1044.96
GAMGPCG:  Solving for p_rgh, Initial residual = 0.0207523, Final residual = 2.06643e-07, No Iterations 5
diagonal:  Solving for rho, Initial residual = 0, Final residual = 0, No Iterations 0
time step continuity errors : sum local = 1.67349e-08, global = -2.65649e-09, cumulative = -8.97896e-08
GAMGPCG:  Solving for p_rgh, Initial residual = 0.00330215, Final residual = 3.24751e-07, No Iterations 4
diagonal:  Solving for rho, Initial residual = 0, Final residual = 0, No Iterations 0
time step continuity errors : sum local = 2.50307e-08, global = 3.15408e-09, cumulative = -8.66355e-08
DILUPBiCGStab:  Solving for omega, Initial residual = 0.000162065, Final residual = 9.90259e-10, No Iterations 2
DILUPBiCGStab:  Solving for k, Initial residual = 0.0108636, Final residual = 8.86451e-09, No Iterations 3

ExecutionTime = 5.17 s  ClockTime = 5 s

    Overall     = 0.00183256, 0.01
Time = 289

diagonal:  Solving for rho, Initial residual = 0, Final residual = 0, No Iterations 0

Execution time for mesh.update() = 0 s

DILUPBiCGStab:  Solving for Ux, Initial residual = 0.00846683, Final residual = 1.67453e-09, No Iterations 3
DILUPBiCGStab:  Solving for Uy, Initial residual = 0.0078267, Final residual = 3.25023e-09, No Iterations 3
DILUPBiCGStab:  Solving for O2, Initial residual = 0.00398347, Final residual = 1.76918e-09, No Iterations 3
DILUPBiCGStab:  Solving for H2O, Initial residual = 0.00398347, Final residual = 1.7692e-09, No Iterations 3
DILUPBiCGStab:  Solving for CH4, Initial residual = 0, Final residual = 0, No Iterations 0
DILUPBiCGStab:  Solving for CO2, Initial residual = 0.00398347, Final residual = 1.7692e-09, No Iterations 3
DILUPBiCGStab:  Solving for h, Initial residual = 0.00457309, Final residual = 2.04621e-09, No Iterations 3
min/max(T) = 300, 1044.96
GAMGPCG:  Solving for p_rgh, Initial residual = 0.0208741, Final residual = 9.50211e-07, No Iterations 4
diagonal:  Solving for rho, Initial residual = 0, Final residual = 0, No Iterations 0
time step continuity errors : sum local = 7.45562e-08, global = -2.05062e-09, cumulative = -8.86861e-08
GAMGPCG:  Solving for p_rgh, Initial residual = 0.00341717, Final residual = 3.10646e-07, No Iterations 4
diagonal:  Solving for rho, Initial residual = 0, Final residual = 0, No Iterations 0
time step continuity errors : sum local = 2.39903e-08, global = 2.8952e-09, cumulative = -8.57909e-08
DILUPBiCGStab:  Solving for omega, Initial residual = 0.000160228, Final residual = 9.90701e-10, No Iterations 2
DILUPBiCGStab:  Solving for k, Initial residual = 0.0109686, Final residual = 8.41967e-09, No Iterations 3

ExecutionTime = 5.29 s  ClockTime = 6 s

    Overall     = 0.00183199, 0.01
Time = 290

diagonal:  Solving for rho, Initial residual = 0, Final residual = 0, No Iterations 0

Execution time for mesh.update() = 0 s

DILUPBiCGStab:  Solving for Ux, Initial residual = 0.00848624, Final residual = 1.54542e-09, No Iterations 3
DILUPBiCGStab:  Solving for Uy, Initial residual = 0.00783401, Final residual = 3.51072e-09, No Iterations 3
GAMGPCG:  Solving for G, Initial residual = 0.155697, Final residual = 5.33519e-05, No Iterations 7
DILUPBiCGStab:  Solving for O2, Initial residual = 0.00398211, Final residual = 1.85888e-09, No Iterations 3
DILUPBiCGStab:  Solving for H2O, Initial residual = 0.00398211, Final residual = 1.8589e-09, No Iterations 3
DILUPBiCGStab:  Solving for CH4, Initial residual = 0, Final residual = 0, No Iterations 0
DILUPBiCGStab:  Solving for CO2, Initial residual = 0.00398211, Final residual = 1.8589e-09, No Iterations 3
DILUPBiCGStab:  Solving for h, Initial residual = 0.00456521, Final residual = 2.1184e-09, No Iterations 3
min/max(T) = 300, 1044.96
GAMGPCG:  Solving for p_rgh, Initial residual = 0.0200462, Final residual = 9.41469e-07, No Iterations 4
diagonal:  Solving for rho, Initial residual = 0, Final residual = 0, No Iterations 0
time step continuity errors : sum local = 7.43861e-08, global = -1.10532e-09, cumulative = -8.68962e-08
GAMGPCG:  Solving for p_rgh, Initial residual = 0.00340827, Final residual = 2.95881e-07, No Iterations 4
diagonal:  Solving for rho, Initial residual = 0, Final residual = 0, No Iterations 0
time step continuity errors : sum local = 2.27696e-08, global = 2.42009e-09, cumulative = -8.44762e-08
DILUPBiCGStab:  Solving for omega, Initial residual = 0.000162223, Final residual = 9.97864e-10, No Iterations 2
DILUPBiCGStab:  Solving for k, Initial residual = 0.0110555, Final residual = 9.79557e-09, No Iterations 3

ExecutionTime = 5.55 s  ClockTime = 6 s

    Overall     = 0.00183108, 0.01
Time = 291

diagonal:  Solving for rho, Initial residual = 0, Final residual = 0, No Iterations 0

Execution time for mesh.update() = 0 s

DILUPBiCGStab:  Solving for Ux, Initial residual = 0.00848164, Final residual = 1.01138e-09, No Iterations 3
DILUPBiCGStab:  Solving for Uy, Initial residual = 0.00778892, Final residual = 3.25359e-09, No Iterations 3
DILUPBiCGStab:  Solving for O2, Initial residual = 0.00397741, Final residual = 1.89192e-09, No Iterations 3
DILUPBiCGStab:  Solving for H2O, Initial residual = 0.00397742, Final residual = 1.89194e-09, No Iterations 3
DILUPBiCGStab:  Solving for CH4, Initial residual = 0, Final residual = 0, No Iterations 0
DILUPBiCGStab:  Solving for CO2, Initial residual = 0.00397742, Final residual = 1.89194e-09, No Iterations 3
DILUPBiCGStab:  Solving for h, Initial residual = 0.00456864, Final residual = 2.23506e-09, No Iterations 3
min/max(T) = 300, 1044.96
GAMGPCG:  Solving for p_rgh, Initial residual = 0.0210667, Final residual = 8.94781e-07, No Iterations 4
diagonal:  Solving for rho, Initial residual = 0, Final residual = 0, No Iterations 0
time step continuity errors : sum local = 7.13398e-08, global = -5.70117e-09, cumulative = -9.01773e-08
GAMGPCG:  Solving for p_rgh, Initial residual = 0.00318319, Final residual = 3.2433e-07, No Iterations 4
diagonal:  Solving for rho, Initial residual = 0, Final residual = 0, No Iterations 0
time step continuity errors : sum local = 2.5023e-08, global = 2.29811e-09, cumulative = -8.78792e-08
DILUPBiCGStab:  Solving for omega, Initial residual = 0.000162851, Final residual = 1.00147e-09, No Iterations 2
DILUPBiCGStab:  Solving for k, Initial residual = 0.0110986, Final residual = 1.5508e-09, No Iterations 3

ExecutionTime = 5.66 s  ClockTime = 6 s

    Overall     = 0.00182982, 0.01
Time = 292

diagonal:  Solving for rho, Initial residual = 0, Final residual = 0, No Iterations 0

Execution time for mesh.update() = 0 s

DILUPBiCGStab:  Solving for Ux, Initial residual = 0.00848123, Final residual = 1.73397e-09, No Iterations 3
DILUPBiCGStab:  Solving for Uy, Initial residual = 0.00782656, Final residual = 3.39794e-09, No Iterations 3
DILUPBiCGStab:  Solving for O2, Initial residual = 0.00397582, Final residual = 1.99328e-09, No Iterations 3
DILUPBiCGStab:  Solving for H2O, Initial residual = 0.00397582, Final residual = 1.9933e-09, No Iterations 3
DILUPBiCGStab:  Solving for CH4, Initial residual = 0, Final residual = 0, No Iterations 0
DILUPBiCGStab:  Solving for CO2, Initial residual = 0.00397582, Final residual = 1.9933e-09, No Iterations 3
DILUPBiCGStab:  Solving for h, Initial residual = 0.00456924, Final residual = 2.37416e-09, No Iterations 3
min/max(T) = 300, 1044.96
GAMGPCG:  Solving for p_rgh, Initial residual = 0.0208607, Final residual = 8.92144e-07, No Iterations 4
diagonal:  Solving for rho, Initial residual = 0, Final residual = 0, No Iterations 0
time step continuity errors : sum local = 7.10497e-08, global = -5.98295e-09, cumulative = -9.38622e-08
GAMGPCG:  Solving for p_rgh, Initial residual = 0.00344889, Final residual = 3.0829e-07, No Iterations 4
diagonal:  Solving for rho, Initial residual = 0, Final residual = 0, No Iterations 0
time step continuity errors : sum local = 2.38819e-08, global = 1.7122e-09, cumulative = -9.215e-08
DILUPBiCGStab:  Solving for omega, Initial residual = 0.000161893, Final residual = 9.71765e-10, No Iterations 2
DILUPBiCGStab:  Solving for k, Initial residual = 0.011126, Final residual = 1.02281e-09, No Iterations 3

ExecutionTime = 5.78 s  ClockTime = 6 s

    Overall     = 0.001828, 0.01
Time = 293

diagonal:  Solving for rho, Initial residual = 0, Final residual = 0, No Iterations 0

Execution time for mesh.update() = 0 s

[...]
GAMGPCG:  Solving for G, Initial residual = 0.104728, Final residual = 5.26463e-05, No Iterations 5
DILUPBiCGStab:  Solving for O2, Initial residual = 0.0023309, Final residual = 4.84507e-09, No Iterations 3
DILUPBiCGStab:  Solving for H2O, Initial residual = 0.00233094, Final residual = 4.84511e-09, No Iterations 3
DILUPBiCGStab:  Solving for CH4, Initial residual = 0, Final residual = 0, No Iterations 0
DILUPBiCGStab:  Solving for CO2, Initial residual = 0.00233094, Final residual = 4.84511e-09, No Iterations 3
DILUPBiCGStab:  Solving for h, Initial residual = 0.00250628, Final residual = 4.79297e-09, No Iterations 3
min/max(T) = 299.83, 1044.96
GAMGPCG:  Solving for p_rgh, Initial residual = 0.0165382, Final residual = 2.041e-07, No Iterations 5
diagonal:  Solving for rho, Initial residual = 0, Final residual = 0, No Iterations 0
time step continuity errors : sum local = 8.78483e-09, global = -1.47464e-09, cumulative = 3.6119e-06
GAMGPCG:  Solving for p_rgh, Initial residual = 0.00352269, Final residual = 4.9786e-07, No Iterations 4
diagonal:  Solving for rho, Initial residual = 0, Final residual = 0, No Iterations 0
time step continuity errors : sum local = 2.04201e-08, global = 2.20842e-09, cumulative = 3.61411e-06
DILUPBiCGStab:  Solving for omega, Initial residual = 0.000133971, Final residual = 3.49158e-09, No Iterations 2
DILUPBiCGStab:  Solving for k, Initial residual = 0.00531576, Final residual = 4.32682e-09, No Iterations 3
bounding k, min: -3.16881e-05 max: 0.0340121 average: 0.00487505

ExecutionTime = 299.78 s  ClockTime = 300 s

    Overall     = 0.0013498, 0.01
Time = 2491

diagonal:  Solving for rho, Initial residual = 0, Final residual = 0, No Iterations 0

Execution time for mesh.update() = 0 s

DILUPBiCGStab:  Solving for Ux, Initial residual = 0.00686067, Final residual = 1.26133e-09, No Iterations 3
DILUPBiCGStab:  Solving for Uy, Initial residual = 0.00580725, Final residual = 1.18814e-09, No Iterations 3
DILUPBiCGStab:  Solving for O2, Initial residual = 0.00233713, Final residual = 4.63559e-09, No Iterations 3
DILUPBiCGStab:  Solving for H2O, Initial residual = 0.00233728, Final residual = 4.63556e-09, No Iterations 3
DILUPBiCGStab:  Solving for CH4, Initial residual = 0, Final residual = 0, No Iterations 0
DILUPBiCGStab:  Solving for CO2, Initial residual = 0.00233728, Final residual = 4.63556e-09, No Iterations 3
DILUPBiCGStab:  Solving for h, Initial residual = 0.00251423, Final residual = 4.65573e-09, No Iterations 3
min/max(T) = 299.818, 1044.96
GAMGPCG:  Solving for p_rgh, Initial residual = 0.0167633, Final residual = 2.22659e-07, No Iterations 5
diagonal:  Solving for rho, Initial residual = 0, Final residual = 0, No Iterations 0
time step continuity errors : sum local = 9.49731e-09, global = -1.88431e-09, cumulative = 3.61222e-06
GAMGPCG:  Solving for p_rgh, Initial residual = 0.00345585, Final residual = 4.94636e-07, No Iterations 4
diagonal:  Solving for rho, Initial residual = 0, Final residual = 0, No Iterations 0
time step continuity errors : sum local = 2.01724e-08, global = 2.33742e-09, cumulative = 3.61456e-06
DILUPBiCGStab:  Solving for omega, Initial residual = 0.000133676, Final residual = 3.4642e-09, No Iterations 2
DILUPBiCGStab:  Solving for k, Initial residual = 0.00532859, Final residual = 4.37318e-09, No Iterations 3

ExecutionTime = 299.9 s  ClockTime = 300 s

    Overall     = 0.00135472, 0.01
Time = 2492

diagonal:  Solving for rho, Initial residual = 0, Final residual = 0, No Iterations 0

Execution time for mesh.update() = 0 s

DILUPBiCGStab:  Solving for Ux, Initial residual = 0.0068669, Final residual = 1.19892e-09, No Iterations 3
DILUPBiCGStab:  Solving for Uy, Initial residual = 0.00579601, Final residual = 1.12472e-09, No Iterations 3
DILUPBiCGStab:  Solving for O2, Initial residual = 0.00233334, Final residual = 5.05011e-09, No Iterations 3
DILUPBiCGStab:  Solving for H2O, Initial residual = 0.00233339, Final residual = 5.05019e-09, No Iterations 3
DILUPBiCGStab:  Solving for CH4, Initial residual = 0, Final residual = 0, No Iterations 0
DILUPBiCGStab:  Solving for CO2, Initial residual = 0.00233339, Final residual = 5.05019e-09, No Iterations 3
DILUPBiCGStab:  Solving for h, Initial residual = 0.00251267, Final residual = 5.05278e-09, No Iterations 3
min/max(T) = 299.824, 1044.96
GAMGPCG:  Solving for p_rgh, Initial residual = 0.0165579, Final residual = 2.16587e-07, No Iterations 5
diagonal:  Solving for rho, Initial residual = 0, Final residual = 0, No Iterations 0
time step continuity errors : sum local = 9.2759e-09, global = -1.93099e-09, cumulative = 3.61263e-06
GAMGPCG:  Solving for p_rgh, Initial residual = 0.00341881, Final residual = 5.04517e-07, No Iterations 4
diagonal:  Solving for rho, Initial residual = 0, Final residual = 0, No Iterations 0
time step continuity errors : sum local = 2.05326e-08, global = 2.65543e-09, cumulative = 3.61528e-06
DILUPBiCGStab:  Solving for omega, Initial residual = 0.000133383, Final residual = 3.5528e-09, No Iterations 2
DILUPBiCGStab:  Solving for k, Initial residual = 0.00532473, Final residual = 4.31257e-09, No Iterations 3

ExecutionTime = 300.02 s  ClockTime = 300 s

    Overall     = 0.00134994, 0.01
Time = 2493

diagonal:  Solving for rho, Initial residual = 0, Final residual = 0, No Iterations 0

Execution time for mesh.update() = 0 s

DILUPBiCGStab:  Solving for Ux, Initial residual = 0.00684896, Final residual = 1.151e-09, No Iterations 3
DILUPBiCGStab:  Solving for Uy, Initial residual = 0.00577192, Final residual = 1.17753e-09, No Iterations 3
DILUPBiCGStab:  Solving for O2, Initial residual = 0.00233561, Final residual = 4.68652e-09, No Iterations 3
DILUPBiCGStab:  Solving for H2O, Initial residual = 0.00233577, Final residual = 4.68647e-09, No Iterations 3
DILUPBiCGStab:  Solving for CH4, Initial residual = 0, Final residual = 0, No Iterations 0
DILUPBiCGStab:  Solving for CO2, Initial residual = 0.00233577, Final residual = 4.68647e-09, No Iterations 3
DILUPBiCGStab:  Solving for h, Initial residual = 0.00251446, Final residual = 4.7638e-09, No Iterations 3
min/max(T) = 299.81, 1044.96
GAMGPCG:  Solving for p_rgh, Initial residual = 0.0166947, Final residual = 2.14593e-07, No Iterations 5
diagonal:  Solving for rho, Initial residual = 0, Final residual = 0, No Iterations 0
time step continuity errors : sum local = 9.17178e-09, global = -1.68881e-09, cumulative = 3.61359e-06
GAMGPCG:  Solving for p_rgh, Initial residual = 0.00335901, Final residual = 4.93623e-07, No Iterations 4
diagonal:  Solving for rho, Initial residual = 0, Final residual = 0, No Iterations 0
time step continuity errors : sum local = 2.01598e-08, global = 2.82594e-09, cumulative = 3.61642e-06
DILUPBiCGStab:  Solving for omega, Initial residual = 0.000132856, Final residual = 3.53276e-09, No Iterations 2
DILUPBiCGStab:  Solving for k, Initial residual = 0.00532415, Final residual = 4.16693e-09, No Iterations 3

ExecutionTime = 300.14 s  ClockTime = 300 s

    Overall     = 0.00135565, 0.01
Time = 2494

diagonal:  Solving for rho, Initial residual = 0, Final residual = 0, No Iterations 0

Execution time for mesh.update() = 0 s

DILUPBiCGStab:  Solving for Ux, Initial residual = 0.00684318, Final residual = 1.14418e-09, No Iterations 3
DILUPBiCGStab:  Solving for Uy, Initial residual = 0.00576075, Final residual = 1.16379e-09, No Iterations 3
DILUPBiCGStab:  Solving for O2, Initial residual = 0.0023374, Final residual = 4.12488e-09, No Iterations 3
DILUPBiCGStab:  Solving for H2O, Initial residual = 0.00233744, Final residual = 4.12494e-09, No Iterations 3
DILUPBiCGStab:  Solving for CH4, Initial residual = 0, Final residual = 0, No Iterations 0
DILUPBiCGStab:  Solving for CO2, Initial residual = 0.00233744, Final residual = 4.12494e-09, No Iterations 3
DILUPBiCGStab:  Solving for h, Initial residual = 0.00251283, Final residual = 4.14749e-09, No Iterations 3
min/max(T) = 299.818, 1044.96
GAMGPCG:  Solving for p_rgh, Initial residual = 0.0164222, Final residual = 2.14567e-07, No Iterations 5
diagonal:  Solving for rho, Initial residual = 0, Final residual = 0, No Iterations 0
time step continuity errors : sum local = 9.1872e-09, global = -1.40397e-09, cumulative = 3.61502e-06
GAMGPCG:  Solving for p_rgh, Initial residual = 0.00330403, Final residual = 4.88617e-07, No Iterations 4
diagonal:  Solving for rho, Initial residual = 0, Final residual = 0, No Iterations 0
time step continuity errors : sum local = 2.00493e-08, global = 3.12631e-09, cumulative = 3.61814e-06
DILUPBiCGStab:  Solving for omega, Initial residual = 0.00013224, Final residual = 3.50142e-09, No Iterations 2
DILUPBiCGStab:  Solving for k, Initial residual = 0.00532364, Final residual = 4.06052e-09, No Iterations 3
bounding k, min: -0.0001453 max: 0.0330232 average: 0.00489324

ExecutionTime = 300.26 s  ClockTime = 301 s

    Overall     = 0.00135131, 0.01
Time = 2495

diagonal:  Solving for rho, Initial residual = 0, Final residual = 0, No Iterations 0

Execution time for mesh.update() = 0 s

DILUPBiCGStab:  Solving for Ux, Initial residual = 0.00683316, Final residual = 1.20703e-09, No Iterations 3
DILUPBiCGStab:  Solving for Uy, Initial residual = 0.00574367, Final residual = 1.19015e-09, No Iterations 3
DILUPBiCGStab:  Solving for O2, Initial residual = 0.0023376, Final residual = 3.87237e-09, No Iterations 3
DILUPBiCGStab:  Solving for H2O, Initial residual = 0.00233775, Final residual = 3.87231e-09, No Iterations 3
DILUPBiCGStab:  Solving for CH4, Initial residual = 0, Final residual = 0, No Iterations 0
DILUPBiCGStab:  Solving for CO2, Initial residual = 0.00233775, Final residual = 3.87231e-09, No Iterations 3
DILUPBiCGStab:  Solving for h, Initial residual = 0.00251362, Final residual = 3.79372e-09, No Iterations 3
min/max(T) = 299.802, 1044.96
GAMGPCG:  Solving for p_rgh, Initial residual = 0.0165333, Final residual = 1.96286e-07, No Iterations 5
diagonal:  Solving for rho, Initial residual = 0, Final residual = 0, No Iterations 0
time step continuity errors : sum local = 8.42349e-09, global = -1.55019e-09, cumulative = 3.61659e-06
GAMGPCG:  Solving for p_rgh, Initial residual = 0.00321693, Final residual = 4.77931e-07, No Iterations 4
diagonal:  Solving for rho, Initial residual = 0, Final residual = 0, No Iterations 0
time step continuity errors : sum local = 1.96226e-08, global = 3.19424e-09, cumulative = 3.61979e-06
DILUPBiCGStab:  Solving for omega, Initial residual = 0.000131622, Final residual = 3.48346e-09, No Iterations 2
DILUPBiCGStab:  Solving for k, Initial residual = 0.00532719, Final residual = 4.08522e-09, No Iterations 3

ExecutionTime = 300.38 s  ClockTime = 301 s

    Overall     = 0.00135708, 0.01
Time = 2496

diagonal:  Solving for rho, Initial residual = 0, Final residual = 0, No Iterations 0

Execution time for mesh.update() = 0 s

DILUPBiCGStab:  Solving for Ux, Initial residual = 0.0068274, Final residual = 1.1478e-09, No Iterations 3
DILUPBiCGStab:  Solving for Uy, Initial residual = 0.00574742, Final residual = 1.23406e-09, No Iterations 3
DILUPBiCGStab:  Solving for O2, Initial residual = 0.00233833, Final residual = 3.60356e-09, No Iterations 3
DILUPBiCGStab:  Solving for H2O, Initial residual = 0.00233838, Final residual = 3.60363e-09, No Iterations 3
DILUPBiCGStab:  Solving for CH4, Initial residual = 0, Final residual = 0, No Iterations 0
DILUPBiCGStab:  Solving for CO2, Initial residual = 0.00233838, Final residual = 3.60363e-09, No Iterations 3
DILUPBiCGStab:  Solving for h, Initial residual = 0.00251228, Final residual = 3.58872e-09, No Iterations 3
min/max(T) = 299.804, 1044.96
GAMGPCG:  Solving for p_rgh, Initial residual = 0.0165001, Final residual = 1.87486e-07, No Iterations 5
diagonal:  Solving for rho, Initial residual = 0, Final residual = 0, No Iterations 0
time step continuity errors : sum local = 8.00739e-09, global = -1.71917e-09, cumulative = 3.61807e-06
GAMGPCG:  Solving for p_rgh, Initial residual = 0.00321708, Final residual = 4.7808e-07, No Iterations 4
diagonal:  Solving for rho, Initial residual = 0, Final residual = 0, No Iterations 0
time step continuity errors : sum local = 1.9723e-08, global = 3.39842e-09, cumulative = 3.62147e-06
DILUPBiCGStab:  Solving for omega, Initial residual = 0.000131517, Final residual = 3.60898e-09, No Iterations 2
DILUPBiCGStab:  Solving for k, Initial residual = 0.00532358, Final residual = 4.22521e-09, No Iterations 3

ExecutionTime = 300.5 s  ClockTime = 301 s

    Overall     = 0.00135292, 0.01
Time = 2497

diagonal:  Solving for rho, Initial residual = 0, Final residual = 0, No Iterations 0

Execution time for mesh.update() = 0 s

DILUPBiCGStab:  Solving for Ux, Initial residual = 0.00680585, Final residual = 1.02262e-09, No Iterations 3
DILUPBiCGStab:  Solving for Uy, Initial residual = 0.0057209, Final residual = 1.28243e-09, No Iterations 3
DILUPBiCGStab:  Solving for O2, Initial residual = 0.00233588, Final residual = 3.65864e-09, No Iterations 3
DILUPBiCGStab:  Solving for H2O, Initial residual = 0.00233606, Final residual = 3.65862e-09, No Iterations 3
DILUPBiCGStab:  Solving for CH4, Initial residual = 0, Final residual = 0, No Iterations 0
DILUPBiCGStab:  Solving for CO2, Initial residual = 0.00233606, Final residual = 3.65862e-09, No Iterations 3
DILUPBiCGStab:  Solving for h, Initial residual = 0.00250953, Final residual = 3.67693e-09, No Iterations 3
min/max(T) = 299.791, 1044.96
GAMGPCG:  Solving for p_rgh, Initial residual = 0.0164512, Final residual = 2.01067e-07, No Iterations 5
diagonal:  Solving for rho, Initial residual = 0, Final residual = 0, No Iterations 0
time step continuity errors : sum local = 8.64772e-09, global = -1.81932e-09, cumulative = 3.61965e-06
GAMGPCG:  Solving for p_rgh, Initial residual = 0.00318674, Final residual = 4.89066e-07, No Iterations 4
diagonal:  Solving for rho, Initial residual = 0, Final residual = 0, No Iterations 0
time step continuity errors : sum local = 2.0127e-08, global = 3.85533e-09, cumulative = 3.6235e-06
DILUPBiCGStab:  Solving for omega, Initial residual = 0.000130592, Final residual = 3.82808e-09, No Iterations 2
DILUPBiCGStab:  Solving for k, Initial residual = 0.00531539, Final residual = 4.44116e-09, No Iterations 3
bounding k, min: -7.06856e-05 max: 0.0330137 average: 0.00490122

ExecutionTime = 300.62 s  ClockTime = 301 s

    Overall     = 0.0013596, 0.01
Time = 2498

diagonal:  Solving for rho, Initial residual = 0, Final residual = 0, No Iterations 0

Execution time for mesh.update() = 0 s

DILUPBiCGStab:  Solving for Ux, Initial residual = 0.00681685, Final residual = 9.99548e-10, No Iterations 3
DILUPBiCGStab:  Solving for Uy, Initial residual = 0.00572215, Final residual = 1.27996e-09, No Iterations 3
DILUPBiCGStab:  Solving for O2, Initial residual = 0.00233536, Final residual = 4.10221e-09, No Iterations 3
DILUPBiCGStab:  Solving for H2O, Initial residual = 0.00233542, Final residual = 4.10233e-09, No Iterations 3
DILUPBiCGStab:  Solving for CH4, Initial residual = 0, Final residual = 0, No Iterations 0
DILUPBiCGStab:  Solving for CO2, Initial residual = 0.00233542, Final residual = 4.10233e-09, No Iterations 3
DILUPBiCGStab:  Solving for h, Initial residual = 0.00250907, Final residual = 4.25196e-09, No Iterations 3
min/max(T) = 299.795, 1044.96
GAMGPCG:  Solving for p_rgh, Initial residual = 0.0166997, Final residual = 1.84199e-07, No Iterations 5
diagonal:  Solving for rho, Initial residual = 0, Final residual = 0, No Iterations 0
time step continuity errors : sum local = 7.86958e-09, global = -1.74393e-09, cumulative = 3.62176e-06
GAMGPCG:  Solving for p_rgh, Initial residual = 0.0031699, Final residual = 5.01098e-07, No Iterations 4
diagonal:  Solving for rho, Initial residual = 0, Final residual = 0, No Iterations 0
time step continuity errors : sum local = 2.05895e-08, global = 3.96081e-09, cumulative = 3.62572e-06
DILUPBiCGStab:  Solving for omega, Initial residual = 0.000129918, Final residual = 3.96951e-09, No Iterations 2
DILUPBiCGStab:  Solving for k, Initial residual = 0.0053118, Final residual = 5.63535e-09, No Iterations 3

ExecutionTime = 300.74 s  ClockTime = 301 s

    Overall     = 0.00135583, 0.01
Time = 2499

diagonal:  Solving for rho, Initial residual = 0, Final residual = 0, No Iterations 0

Execution time for mesh.update() = 0 s

DILUPBiCGStab:  Solving for Ux, Initial residual = 0.00679914, Final residual = 1.02106e-09, No Iterations 3
DILUPBiCGStab:  Solving for Uy, Initial residual = 0.00569608, Final residual = 1.19444e-09, No Iterations 3
DILUPBiCGStab:  Solving for O2, Initial residual = 0.00233604, Final residual = 4.31493e-09, No Iterations 3
DILUPBiCGStab:  Solving for H2O, Initial residual = 0.00233621, Final residual = 4.31484e-09, No Iterations 3
DILUPBiCGStab:  Solving for CH4, Initial residual = 0, Final residual = 0, No Iterations 0
DILUPBiCGStab:  Solving for CO2, Initial residual = 0.00233621, Final residual = 4.31484e-09, No Iterations 3
DILUPBiCGStab:  Solving for h, Initial residual = 0.00250549, Final residual = 4.55929e-09, No Iterations 3
min/max(T) = 299.779, 1044.96
GAMGPCG:  Solving for p_rgh, Initial residual = 0.0165179, Final residual = 1.82548e-07, No Iterations 5
diagonal:  Solving for rho, Initial residual = 0, Final residual = 0, No Iterations 0
time step continuity errors : sum local = 7.7159e-09, global = -1.52873e-09, cumulative = 3.62419e-06
GAMGPCG:  Solving for p_rgh, Initial residual = 0.00312135, Final residual = 4.97112e-07, No Iterations 4
diagonal:  Solving for rho, Initial residual = 0, Final residual = 0, No Iterations 0
time step continuity errors : sum local = 2.03559e-08, global = 3.83887e-09, cumulative = 3.62803e-06
DILUPBiCGStab:  Solving for omega, Initial residual = 0.000129024, Final residual = 3.81414e-09, No Iterations 2
DILUPBiCGStab:  Solving for k, Initial residual = 0.00530812, Final residual = 5.2356e-09, No Iterations 3

ExecutionTime = 300.86 s  ClockTime = 301 s

    Overall     = 0.0013625, 0.01
Time = 2500

diagonal:  Solving for rho, Initial residual = 0, Final residual = 0, No Iterations 0

Execution time for mesh.update() = 0 s

DILUPBiCGStab:  Solving for Ux, Initial residual = 0.006821, Final residual = 9.60664e-09, No Iterations 3
DILUPBiCGStab:  Solving for Uy, Initial residual = 0.00570124, Final residual = 1.18213e-09, No Iterations 3
GAMGPCG:  Solving for G, Initial residual = 0.108141, Final residual = 3.35667e-05, No Iterations 6
DILUPBiCGStab:  Solving for O2, Initial residual = 0.00233132, Final residual = 4.36647e-09, No Iterations 3
DILUPBiCGStab:  Solving for H2O, Initial residual = 0.00233139, Final residual = 4.3666e-09, No Iterations 3
DILUPBiCGStab:  Solving for CH4, Initial residual = 0, Final residual = 0, No Iterations 0
DILUPBiCGStab:  Solving for CO2, Initial residual = 0.00233139, Final residual = 4.3666e-09, No Iterations 3
DILUPBiCGStab:  Solving for h, Initial residual = 0.00250105, Final residual = 4.56719e-09, No Iterations 3
min/max(T) = 299.781, 1044.96
GAMGPCG:  Solving for p_rgh, Initial residual = 0.0164086, Final residual = 1.74964e-07, No Iterations 5
diagonal:  Solving for rho, Initial residual = 0, Final residual = 0, No Iterations 0
time step continuity errors : sum local = 7.36391e-09, global = -1.30163e-09, cumulative = 3.62673e-06
GAMGPCG:  Solving for p_rgh, Initial residual = 0.00311738, Final residual = 4.8837e-07, No Iterations 4
diagonal:  Solving for rho, Initial residual = 0, Final residual = 0, No Iterations 0
time step continuity errors : sum local = 1.99659e-08, global = 3.66975e-09, cumulative = 3.6304e-06
DILUPBiCGStab:  Solving for omega, Initial residual = 0.000128887, Final residual = 3.64027e-09, No Iterations 2
DILUPBiCGStab:  Solving for k, Initial residual = 0.00531106, Final residual = 5.06624e-09, No Iterations 3
bounding k, min: -0.000150761 max: 0.0339649 average: 0.00490538

ExecutionTime = 301.11 s  ClockTime = 301 s


Patch Mean : 302.851
Patch Variance : 0.0933288
Patch Gradient : 0.199978
End
