/*---------------------------------------------------------------------------*\
  =========                 |
  \\      /  F ield         | OpenFOAM: The Open Source CFD Toolbox
   \\    /   O peration     | Website:  https://openfoam.org
    \\  /    A nd           | Version:  dev
     \\/     M anipulation  |
\*---------------------------------------------------------------------------*/
Build  : dev-cabe48fb62c1
Exec   : fireDyMFoam
Date   : Apr 15 2019
Time   : 12:43:35
Host   : "Host"
PID    : 1504
I/O    : uncollated
Case   : /home/tesla/OpenFOAM/tesla-dev/run/rollerOpt_COBYLA_NEW
nProcs : 1
sigFpe : Enabling floating point exception trapping (FOAM_SIGFPE).
fileModificationChecking : Monitoring run-time modified files using timeStampMaster (fileModificationSkew 10)
allowSystemOperations : Allowing user-supplied system call operations

// * * * * * * * * * * * * * * * * * * * * * * * * * * * * * * * * * * * * * //
Create time

--> FOAM Warning : 
    From function void* Foam::dlOpen(const Foam::fileName&, bool)
    in file POSIX.C at line 1268
    dlopen error : libgroovyBC.so: cannot open shared object file: No such file or directory
--> FOAM Warning : 
    From function bool Foam::dlLibraryTable::open(const Foam::fileName&, bool)
    in file db/dynamicLibrary/dlLibraryTable/dlLibraryTable.C at line 105
    could not load "libgroovyBC.so"
Create mesh for time = 250

Selecting dynamicFvMesh dynamicRefineFvMesh
Detected 536 cells that are protected from refinement. Writing these to cellSet protectedCells.

PIMPLE: No convergence criteria found


PIMPLE: Operating solver in PISO mode


Initializing Solver

Selecting thermodynamics package 
{
    type            hePsiThermo;
    mixture         reactingMixture;
    transport       sutherland;
    thermo          janaf;
    energy          sensibleEnthalpy;
    equationOfState perfectGas;
    specie          specie;
}

Selecting chemistryReader foamChemistryReader
    elements not defined in "/home/tesla/OpenFOAM/tesla-dev/run/rollerOpt_COBYLA_NEW/constant/reactions"
Reading/calculating face flux field phi

No MRF models present

Selecting turbulence model type RAS
Selecting RAS turbulence model kOmegaSST
Selecting patchDistMethod meshWave
kOmegaSSTCoeffs
{
    delta           cubeRootVol;
    cubeRootVolCoeffs
    {
        deltaCoeff      1;
    }
    alphaK1         0.85;
    alphaK2         1;
    alphaOmega1     0.5;
    alphaOmega2     0.856;
    gamma1          0.555556;
    gamma2          0.44;
    beta1           0.075;
    beta2           0.0828;
    betaStar        0.09;
    a1              0.31;
    b1              1;
    c1              10;
    F3              false;
}

Selecting combustion model none<psiThermoCombustion>
--> FOAM Warning : 
    From function static Foam::autoPtr<T> Foam::combustionModel::New(typename CombustionModel::reactionThermo&, const Foam::compressibleTurbulenceModel&, const Foam::word&) [with CombustionModel = Foam::CombustionModel<Foam::psiReactionThermo>; typename CombustionModel::reactionThermo = Foam::psiReactionThermo]
    in file /home/tesla/OpenFOAM/OpenFOAM-dev/src/combustionModels/lnInclude/combustionModelTemplates.C at line 69
    Template parameters are no longer required when selecting a combustionModel. This information is now obtained directly from the thermodynamics. Actually selecting combustion model none.

Reading g

Reading hRef
Calculating field g.h


Reading pRef
Selecting radiationModel P1
Selecting absorptionEmissionModel greyMeanAbsorptionEmission
Selecting scatterModel none
Selecting sootModel none
Creating finite volume options from "system/fvOptions"

No finite volume options present
Using LTS

Starting time loop

Using dynamicCode for functionObject patchCalcs at line 64 in "/home/tesla/OpenFOAM/tesla-dev/run/rollerOpt_COBYLA_NEW/system/controlDict.functions.patchCalcs"
    Overall     = 0.00150872, 0.01
Time = 251

diagonal:  Solving for rho, Initial residual = 0, Final residual = 0, No Iterations 0

Execution time for mesh.update() = 0 s

DILUPBiCGStab:  Solving for Ux, Initial residual = 0.00564508, Final residual = 6.21628e-09, No Iterations 3
DILUPBiCGStab:  Solving for Uy, Initial residual = 0.00833962, Final residual = 6.48172e-09, No Iterations 3
GAMGPCG:  Solving for G, Initial residual = 0.0326855, Final residual = 3.92951e-05, No Iterations 4
DILUPBiCGStab:  Solving for O2, Initial residual = 0.00357515, Final residual = 2.83095e-09, No Iterations 3
DILUPBiCGStab:  Solving for H2O, Initial residual = 0.00357462, Final residual = 2.83116e-09, No Iterations 3
DILUPBiCGStab:  Solving for CH4, Initial residual = 0, Final residual = 0, No Iterations 0
DILUPBiCGStab:  Solving for CO2, Initial residual = 0.00357462, Final residual = 2.83116e-09, No Iterations 3
DILUPBiCGStab:  Solving for h, Initial residual = 0.00411109, Final residual = 2.90003e-09, No Iterations 3
min/max(T) = 299.817, 1044.97
GAMGPCG:  Solving for p_rgh, Initial residual = 0.0206465, Final residual = 8.2674e-07, No Iterations 4
diagonal:  Solving for rho, Initial residual = 0, Final residual = 0, No Iterations 0
time step continuity errors : sum local = 2.4657e-06, global = -1.35819e-07, cumulative = -1.35819e-07
GAMGPCG:  Solving for p_rgh, Initial residual = 0.00271973, Final residual = 1.78159e-07, No Iterations 4
diagonal:  Solving for rho, Initial residual = 0, Final residual = 0, No Iterations 0
time step continuity errors : sum local = 2.46491e-06, global = -1.36699e-07, cumulative = -2.72518e-07
DILUPBiCGStab:  Solving for omega, Initial residual = 0.000132148, Final residual = 2.04878e-09, No Iterations 2
DILUPBiCGStab:  Solving for k, Initial residual = 0.00663196, Final residual = 4.57411e-09, No Iterations 3

ExecutionTime = 0.38 s  ClockTime = 0 s

    Overall     = 0.00152023, 0.01
Time = 252

diagonal:  Solving for rho, Initial residual = 0, Final residual = 0, No Iterations 0

Execution time for mesh.update() = 0 s

DILUPBiCGStab:  Solving for Ux, Initial residual = 0.00563381, Final residual = 6.14979e-09, No Iterations 3
DILUPBiCGStab:  Solving for Uy, Initial residual = 0.00832007, Final residual = 6.67624e-09, No Iterations 3
DILUPBiCGStab:  Solving for O2, Initial residual = 0.00356127, Final residual = 2.88801e-09, No Iterations 3
DILUPBiCGStab:  Solving for H2O, Initial residual = 0.00356151, Final residual = 2.88809e-09, No Iterations 3
DILUPBiCGStab:  Solving for CH4, Initial residual = 0, Final residual = 0, No Iterations 0
DILUPBiCGStab:  Solving for CO2, Initial residual = 0.00356151, Final residual = 2.88807e-09, No Iterations 3
DILUPBiCGStab:  Solving for h, Initial residual = 0.00409808, Final residual = 3.01683e-09, No Iterations 3
min/max(T) = 299.418, 1044.97
GAMGPCG:  Solving for p_rgh, Initial residual = 0.0200902, Final residual = 6.36533e-07, No Iterations 4
diagonal:  Solving for rho, Initial residual = 0, Final residual = 0, No Iterations 0
time step continuity errors : sum local = 3.45086e-08, global = 3.72838e-09, cumulative = -2.6879e-07
GAMGPCG:  Solving for p_rgh, Initial residual = 0.00262223, Final residual = 2.24941e-07, No Iterations 4
diagonal:  Solving for rho, Initial residual = 0, Final residual = 0, No Iterations 0
time step continuity errors : sum local = 1.17052e-08, global = 4.97225e-10, cumulative = -2.68292e-07
DILUPBiCGStab:  Solving for omega, Initial residual = 0.000130304, Final residual = 2.09434e-09, No Iterations 2
bounding omega, min: -0.662881 max: 15707.4 average: 301.435
DILUPBiCGStab:  Solving for k, Initial residual = 0.00666402, Final residual = 4.81679e-09, No Iterations 3

ExecutionTime = 0.5 s  ClockTime = 1 s

    Overall     = 0.00150273, 0.01
Time = 253

diagonal:  Solving for rho, Initial residual = 0, Final residual = 0, No Iterations 0

Execution time for mesh.update() = 0 s

DILUPBiCGStab:  Solving for Ux, Initial residual = 0.00560565, Final residual = 6.14115e-09, No Iterations 3
DILUPBiCGStab:  Solving for Uy, Initial residual = 0.0083107, Final residual = 6.76021e-09, No Iterations 3
DILUPBiCGStab:  Solving for O2, Initial residual = 0.00354547, Final residual = 2.92195e-09, No Iterations 3
DILUPBiCGStab:  Solving for H2O, Initial residual = 0.00354566, Final residual = 2.92201e-09, No Iterations 3
DILUPBiCGStab:  Solving for CH4, Initial residual = 0, Final residual = 0, No Iterations 0
DILUPBiCGStab:  Solving for CO2, Initial residual = 0.00354566, Final residual = 2.92198e-09, No Iterations 3
DILUPBiCGStab:  Solving for h, Initial residual = 0.0040825, Final residual = 2.9405e-09, No Iterations 3
min/max(T) = 299.361, 1044.97
GAMGPCG:  Solving for p_rgh, Initial residual = 0.0200142, Final residual = 7.88537e-07, No Iterations 4
diagonal:  Solving for rho, Initial residual = 0, Final residual = 0, No Iterations 0
time step continuity errors : sum local = 4.33991e-08, global = -7.25548e-10, cumulative = -2.69018e-07
GAMGPCG:  Solving for p_rgh, Initial residual = 0.00260354, Final residual = 1.56746e-07, No Iterations 4
diagonal:  Solving for rho, Initial residual = 0, Final residual = 0, No Iterations 0
time step continuity errors : sum local = 8.22185e-09, global = 1.35306e-10, cumulative = -2.68883e-07
DILUPBiCGStab:  Solving for omega, Initial residual = 0.000129233, Final residual = 2.25972e-09, No Iterations 2
DILUPBiCGStab:  Solving for k, Initial residual = 0.00669663, Final residual = 5.59603e-09, No Iterations 3

ExecutionTime = 0.61 s  ClockTime = 1 s

    Overall     = 0.00150707, 0.01
Time = 254

diagonal:  Solving for rho, Initial residual = 0, Final residual = 0, No Iterations 0

Execution time for mesh.update() = 0 s

DILUPBiCGStab:  Solving for Ux, Initial residual = 0.00561317, Final residual = 5.87005e-09, No Iterations 3
DILUPBiCGStab:  Solving for Uy, Initial residual = 0.00829773, Final residual = 7.45843e-09, No Iterations 3
DILUPBiCGStab:  Solving for O2, Initial residual = 0.00354325, Final residual = 2.59716e-09, No Iterations 3
DILUPBiCGStab:  Solving for H2O, Initial residual = 0.00354287, Final residual = 2.59712e-09, No Iterations 3
DILUPBiCGStab:  Solving for CH4, Initial residual = 0, Final residual = 0, No Iterations 0
DILUPBiCGStab:  Solving for CO2, Initial residual = 0.00354287, Final residual = 2.59707e-09, No Iterations 3
DILUPBiCGStab:  Solving for h, Initial residual = 0.00407794, Final residual = 2.87059e-09, No Iterations 3
min/max(T) = 299.816, 1044.97
GAMGPCG:  Solving for p_rgh, Initial residual = 0.0199694, Final residual = 7.01163e-07, No Iterations 4
diagonal:  Solving for rho, Initial residual = 0, Final residual = 0, No Iterations 0
time step continuity errors : sum local = 3.79458e-08, global = -5.18501e-10, cumulative = -2.69401e-07
GAMGPCG:  Solving for p_rgh, Initial residual = 0.00261529, Final residual = 1.86968e-07, No Iterations 4
diagonal:  Solving for rho, Initial residual = 0, Final residual = 0, No Iterations 0
time step continuity errors : sum local = 9.68782e-09, global = 3.8268e-10, cumulative = -2.69019e-07
DILUPBiCGStab:  Solving for omega, Initial residual = 0.000128944, Final residual = 2.29828e-09, No Iterations 2
DILUPBiCGStab:  Solving for k, Initial residual = 0.00675856, Final residual = 7.37001e-09, No Iterations 3

ExecutionTime = 0.73 s  ClockTime = 1 s

    Overall     = 0.0015116, 0.01
Time = 255

diagonal:  Solving for rho, Initial residual = 0, Final residual = 0, No Iterations 0

Execution time for mesh.update() = 0 s

DILUPBiCGStab:  Solving for Ux, Initial residual = 0.00559736, Final residual = 5.80043e-09, No Iterations 3
DILUPBiCGStab:  Solving for Uy, Initial residual = 0.00828962, Final residual = 8.27531e-09, No Iterations 3
DILUPBiCGStab:  Solving for O2, Initial residual = 0.00353301, Final residual = 3.00279e-09, No Iterations 3
DILUPBiCGStab:  Solving for H2O, Initial residual = 0.00353327, Final residual = 3.00279e-09, No Iterations 3
DILUPBiCGStab:  Solving for CH4, Initial residual = 0, Final residual = 0, No Iterations 0
DILUPBiCGStab:  Solving for CO2, Initial residual = 0.00353327, Final residual = 3.00274e-09, No Iterations 3
DILUPBiCGStab:  Solving for h, Initial residual = 0.00407505, Final residual = 3.35e-09, No Iterations 3
min/max(T) = 299.467, 1044.97
GAMGPCG:  Solving for p_rgh, Initial residual = 0.0195976, Final residual = 7.66536e-07, No Iterations 4
diagonal:  Solving for rho, Initial residual = 0, Final residual = 0, No Iterations 0
time step continuity errors : sum local = 4.19013e-08, global = 2.86683e-11, cumulative = -2.6899e-07
GAMGPCG:  Solving for p_rgh, Initial residual = 0.00257032, Final residual = 1.45081e-07, No Iterations 4
diagonal:  Solving for rho, Initial residual = 0, Final residual = 0, No Iterations 0
time step continuity errors : sum local = 7.58697e-09, global = 1.47224e-10, cumulative = -2.68843e-07
DILUPBiCGStab:  Solving for omega, Initial residual = 0.000127482, Final residual = 2.13017e-09, No Iterations 2
DILUPBiCGStab:  Solving for k, Initial residual = 0.00680581, Final residual = 1.11983e-09, No Iterations 3

ExecutionTime = 0.85 s  ClockTime = 1 s

    Overall     = 0.00150439, 0.01
Time = 256

diagonal:  Solving for rho, Initial residual = 0, Final residual = 0, No Iterations 0

Execution time for mesh.update() = 0 s

DILUPBiCGStab:  Solving for Ux, Initial residual = 0.00558966, Final residual = 5.67939e-09, No Iterations 3
DILUPBiCGStab:  Solving for Uy, Initial residual = 0.00828192, Final residual = 9.09463e-09, No Iterations 3
DILUPBiCGStab:  Solving for O2, Initial residual = 0.00352386, Final residual = 3.23983e-09, No Iterations 3
DILUPBiCGStab:  Solving for H2O, Initial residual = 0.00352356, Final residual = 3.23984e-09, No Iterations 3
DILUPBiCGStab:  Solving for CH4, Initial residual = 0, Final residual = 0, No Iterations 0
DILUPBiCGStab:  Solving for CO2, Initial residual = 0.00352356, Final residual = 3.23982e-09, No Iterations 3
DILUPBiCGStab:  Solving for h, Initial residual = 0.00406679, Final residual = 3.75421e-09, No Iterations 3
min/max(T) = 299.819, 1044.97
GAMGPCG:  Solving for p_rgh, Initial residual = 0.0197735, Final residual = 6.80974e-07, No Iterations 4
diagonal:  Solving for rho, Initial residual = 0, Final residual = 0, No Iterations 0
time step continuity errors : sum local = 3.67804e-08, global = -2.71509e-10, cumulative = -2.69114e-07
GAMGPCG:  Solving for p_rgh, Initial residual = 0.00246823, Final residual = 1.67162e-07, No Iterations 4
diagonal:  Solving for rho, Initial residual = 0, Final residual = 0, No Iterations 0
time step continuity errors : sum local = 8.67514e-09, global = 2.92734e-10, cumulative = -2.68821e-07
DILUPBiCGStab:  Solving for omega, Initial residual = 0.00012811, Final residual = 2.13254e-09, No Iterations 2
DILUPBiCGStab:  Solving for k, Initial residual = 0.00683549, Final residual = 3.35314e-09, No Iterations 3

ExecutionTime = 0.96 s  ClockTime = 1 s

    Overall     = 0.00151007, 0.01
Time = 257

diagonal:  Solving for rho, Initial residual = 0, Final residual = 0, No Iterations 0

Execution time for mesh.update() = 0 s

DILUPBiCGStab:  Solving for Ux, Initial residual = 0.00557021, Final residual = 6.28175e-09, No Iterations 3
DILUPBiCGStab:  Solving for Uy, Initial residual = 0.00829273, Final residual = 9.67523e-09, No Iterations 3
DILUPBiCGStab:  Solving for O2, Initial residual = 0.00352164, Final residual = 3.21773e-09, No Iterations 3
DILUPBiCGStab:  Solving for H2O, Initial residual = 0.00352186, Final residual = 3.21783e-09, No Iterations 3
DILUPBiCGStab:  Solving for CH4, Initial residual = 0, Final residual = 0, No Iterations 0
DILUPBiCGStab:  Solving for CO2, Initial residual = 0.00352187, Final residual = 3.21784e-09, No Iterations 3
DILUPBiCGStab:  Solving for h, Initial residual = 0.00406323, Final residual = 3.65752e-09, No Iterations 3
min/max(T) = 299.462, 1044.97
GAMGPCG:  Solving for p_rgh, Initial residual = 0.0193284, Final residual = 7.02172e-07, No Iterations 4
diagonal:  Solving for rho, Initial residual = 0, Final residual = 0, No Iterations 0
time step continuity errors : sum local = 3.82767e-08, global = 4.28255e-10, cumulative = -2.68393e-07
GAMGPCG:  Solving for p_rgh, Initial residual = 0.0024775, Final residual = 1.66892e-07, No Iterations 4
diagonal:  Solving for rho, Initial residual = 0, Final residual = 0, No Iterations 0
time step continuity errors : sum local = 8.70499e-09, global = 2.02607e-10, cumulative = -2.68191e-07
DILUPBiCGStab:  Solving for omega, Initial residual = 0.000126424, Final residual = 2.0715e-09, No Iterations 2
DILUPBiCGStab:  Solving for k, Initial residual = 0.00687242, Final residual = 2.74929e-11, No Iterations 4

ExecutionTime = 1.07 s  ClockTime = 1 s

    Overall     = 0.00150353, 0.01
Time = 258

diagonal:  Solving for rho, Initial residual = 0, Final residual = 0, No Iterations 0

Execution time for mesh.update() = 0 s

DILUPBiCGStab:  Solving for Ux, Initial residual = 0.00557348, Final residual = 7.59627e-09, No Iterations 3
DILUPBiCGStab:  Solving for Uy, Initial residual = 0.00828943, Final residual = 9.2377e-10, No Iterations 3
DILUPBiCGStab:  Solving for O2, Initial residual = 0.00351154, Final residual = 3.29243e-09, No Iterations 3
DILUPBiCGStab:  Solving for H2O, Initial residual = 0.00351123, Final residual = 3.2925e-09, No Iterations 3
DILUPBiCGStab:  Solving for CH4, Initial residual = 0, Final residual = 0, No Iterations 0
DILUPBiCGStab:  Solving for CO2, Initial residual = 0.00351123, Final residual = 3.29251e-09, No Iterations 3
DILUPBiCGStab:  Solving for h, Initial residual = 0.00405488, Final residual = 3.3809e-09, No Iterations 3
min/max(T) = 299.824, 1044.97
GAMGPCG:  Solving for p_rgh, Initial residual = 0.0193569, Final residual = 7.00169e-07, No Iterations 4
diagonal:  Solving for rho, Initial residual = 0, Final residual = 0, No Iterations 0
time step continuity errors : sum local = 3.78693e-08, global = -5.44721e-10, cumulative = -2.68735e-07
GAMGPCG:  Solving for p_rgh, Initial residual = 0.00245716, Final residual = 1.67496e-07, No Iterations 4
diagonal:  Solving for rho, Initial residual = 0, Final residual = 0, No Iterations 0
time step continuity errors : sum local = 8.6896e-09, global = 2.57442e-10, cumulative = -2.68478e-07
DILUPBiCGStab:  Solving for omega, Initial residual = 0.000126965, Final residual = 2.00077e-09, No Iterations 2
DILUPBiCGStab:  Solving for k, Initial residual = 0.00691335, Final residual = 2.8447e-11, No Iterations 4

ExecutionTime = 1.19 s  ClockTime = 1 s

    Overall     = 0.00150868, 0.01
Time = 259

diagonal:  Solving for rho, Initial residual = 0, Final residual = 0, No Iterations 0

Execution time for mesh.update() = 0 s

DILUPBiCGStab:  Solving for Ux, Initial residual = 0.00557722, Final residual = 8.88165e-09, No Iterations 3
DILUPBiCGStab:  Solving for Uy, Initial residual = 0.00828993, Final residual = 1.00077e-09, No Iterations 3
DILUPBiCGStab:  Solving for O2, Initial residual = 0.00350194, Final residual = 3.40676e-09, No Iterations 3
DILUPBiCGStab:  Solving for H2O, Initial residual = 0.00350215, Final residual = 3.40691e-09, No Iterations 3
DILUPBiCGStab:  Solving for CH4, Initial residual = 0, Final residual = 0, No Iterations 0
DILUPBiCGStab:  Solving for CO2, Initial residual = 0.00350215, Final residual = 3.40689e-09, No Iterations 3
DILUPBiCGStab:  Solving for h, Initial residual = 0.00404695, Final residual = 3.69518e-09, No Iterations 3
min/max(T) = 299.468, 1044.97
GAMGPCG:  Solving for p_rgh, Initial residual = 0.0191577, Final residual = 6.26405e-07, No Iterations 4
diagonal:  Solving for rho, Initial residual = 0, Final residual = 0, No Iterations 0
time step continuity errors : sum local = 3.39677e-08, global = 4.69134e-09, cumulative = -2.63787e-07
GAMGPCG:  Solving for p_rgh, Initial residual = 0.00244575, Final residual = 1.63777e-07, No Iterations 4
diagonal:  Solving for rho, Initial residual = 0, Final residual = 0, No Iterations 0
time step continuity errors : sum local = 8.48107e-09, global = 4.33291e-10, cumulative = -2.63353e-07
DILUPBiCGStab:  Solving for omega, Initial residual = 0.000126636, Final residual = 2.18233e-09, No Iterations 2
DILUPBiCGStab:  Solving for k, Initial residual = 0.00693218, Final residual = 2.91021e-09, No Iterations 3

ExecutionTime = 1.3 s  ClockTime = 1 s

    Overall     = 0.00149995, 0.01
Time = 260

diagonal:  Solving for rho, Initial residual = 0, Final residual = 0, No Iterations 0

Execution time for mesh.update() = 0 s

DILUPBiCGStab:  Solving for Ux, Initial residual = 0.00557274, Final residual = 8.92047e-10, No Iterations 3
DILUPBiCGStab:  Solving for Uy, Initial residual = 0.00828879, Final residual = 1.0163e-09, No Iterations 3
GAMGPCG:  Solving for G, Initial residual = 0.13326, Final residual = 4.34788e-05, No Iterations 6
DILUPBiCGStab:  Solving for O2, Initial residual = 0.00349318, Final residual = 3.09455e-09, No Iterations 3
DILUPBiCGStab:  Solving for H2O, Initial residual = 0.00349285, Final residual = 3.0946e-09, No Iterations 3
DILUPBiCGStab:  Solving for CH4, Initial residual = 0, Final residual = 0, No Iterations 0
DILUPBiCGStab:  Solving for CO2, Initial residual = 0.00349285, Final residual = 3.09459e-09, No Iterations 3
DILUPBiCGStab:  Solving for h, Initial residual = 0.00404088, Final residual = 3.14732e-09, No Iterations 3
min/max(T) = 299.831, 1044.97
GAMGPCG:  Solving for p_rgh, Initial residual = 0.0190678, Final residual = 7.33547e-07, No Iterations 4
diagonal:  Solving for rho, Initial residual = 0, Final residual = 0, No Iterations 0
time step continuity errors : sum local = 3.97109e-08, global = -4.58706e-10, cumulative = -2.63812e-07
GAMGPCG:  Solving for p_rgh, Initial residual = 0.00239168, Final residual = 1.67261e-07, No Iterations 4
diagonal:  Solving for rho, Initial residual = 0, Final residual = 0, No Iterations 0
time step continuity errors : sum local = 8.66598e-09, global = 4.93212e-10, cumulative = -2.63319e-07
DILUPBiCGStab:  Solving for omega, Initial residual = 0.000127124, Final residual = 2.15346e-09, No Iterations 2
DILUPBiCGStab:  Solving for k, Initial residual = 0.00696408, Final residual = 3.56144e-09, No Iterations 3

ExecutionTime = 1.56 s  ClockTime = 2 s

    Overall     = 0.00150677, 0.01
Time = 261

diagonal:  Solving for rho, Initial residual = 0, Final residual = 0, No Iterations 0

Execution time for mesh.update() = 0 s

DILUPBiCGStab:  Solving for Ux, Initial residual = 0.00557451, Final residual = 9.07985e-10, No Iterations 3
DILUPBiCGStab:  Solving for Uy, Initial residual = 0.00828825, Final residual = 1.0745e-09, No Iterations 3
DILUPBiCGStab:  Solving for O2, Initial residual = 0.00348934, Final residual = 2.76932e-09, No Iterations 3
DILUPBiCGStab:  Solving for H2O, Initial residual = 0.00348955, Final residual = 2.76934e-09, No Iterations 3
DILUPBiCGStab:  Solving for CH4, Initial residual = 0, Final residual = 0, No Iterations 0
DILUPBiCGStab:  Solving for CO2, Initial residual = 0.00348955, Final residual = 2.76934e-09, No Iterations 3
DILUPBiCGStab:  Solving for h, Initial residual = 0.00403644, Final residual = 2.91581e-09, No Iterations 3
min/max(T) = 299.488, 1044.97
GAMGPCG:  Solving for p_rgh, Initial residual = 0.0193346, Final residual = 6.68976e-07, No Iterations 4
diagonal:  Solving for rho, Initial residual = 0, Final residual = 0, No Iterations 0
time step continuity errors : sum local = 3.62748e-08, global = 4.75627e-09, cumulative = -2.58562e-07
GAMGPCG:  Solving for p_rgh, Initial residual = 0.00241523, Final residual = 1.48275e-07, No Iterations 4
diagonal:  Solving for rho, Initial residual = 0, Final residual = 0, No Iterations 0
time step continuity errors : sum local = 7.65399e-09, global = 1.08839e-10, cumulative = -2.58454e-07
DILUPBiCGStab:  Solving for omega, Initial residual = 0.00012678, Final residual = 2.37657e-09, No Iterations 2
DILUPBiCGStab:  Solving for k, Initial residual = 0.00700604, Final residual = 7.38473e-10, No Iterations 3

ExecutionTime = 1.68 s  ClockTime = 2 s

    Overall     = 0.00149459, 0.01
Time = 262

diagonal:  Solving for rho, Initial residual = 0, Final residual = 0, No Iterations 0

Execution time for mesh.update() = 0 s

DILUPBiCGStab:  Solving for Ux, Initial residual = 0.00558443, Final residual = 8.32745e-09, No Iterations 3
DILUPBiCGStab:  Solving for Uy, Initial residual = 0.00828507, Final residual = 1.23921e-09, No Iterations 3
DILUPBiCGStab:  Solving for O2, Initial residual = 0.00347805, Final residual = 2.80676e-09, No Iterations 3
DILUPBiCGStab:  Solving for H2O, Initial residual = 0.00347772, Final residual = 2.80679e-09, No Iterations 3
DILUPBiCGStab:  Solving for CH4, Initial residual = 0, Final residual = 0, No Iterations 0
DILUPBiCGStab:  Solving for CO2, Initial residual = 0.00347772, Final residual = 2.80678e-09, No Iterations 3
DILUPBiCGStab:  Solving for h, Initial residual = 0.00402813, Final residual = 2.98423e-09, No Iterations 3
min/max(T) = 299.84, 1044.97
GAMGPCG:  Solving for p_rgh, Initial residual = 0.0191488, Final residual = 7.01801e-07, No Iterations 4
diagonal:  Solving for rho, Initial residual = 0, Final residual = 0, No Iterations 0
time step continuity errors : sum local = 3.81633e-08, global = 4.17067e-09, cumulative = -2.54283e-07
GAMGPCG:  Solving for p_rgh, Initial residual = 0.00240205, Final residual = 1.54573e-07, No Iterations 4
diagonal:  Solving for rho, Initial residual = 0, Final residual = 0, No Iterations 0
time step continuity errors : sum local = 7.91771e-09, global = 2.70485e-10, cumulative = -2.54012e-07
DILUPBiCGStab:  Solving for omega, Initial residual = 0.000128287, Final residual = 2.31122e-09, No Iterations 2
DILUPBiCGStab:  Solving for k, Initial residual = 0.00704624, Final residual = 3.43157e-11, No Iterations 4

ExecutionTime = 1.79 s  ClockTime = 2 s

    Overall     = 0.00150346, 0.01
Time = 263

diagonal:  Solving for rho, Initial residual = 0, Final residual = 0, No Iterations 0

Execution time for mesh.update() = 0 s

DILUPBiCGStab:  Solving for Ux, Initial residual = 0.00560063, Final residual = 7.18889e-09, No Iterations 3
DILUPBiCGStab:  Solving for Uy, Initial residual = 0.00828258, Final residual = 1.39768e-09, No Iterations 3
DILUPBiCGStab:  Solving for O2, Initial residual = 0.00347352, Final residual = 2.87207e-09, No Iterations 3
DILUPBiCGStab:  Solving for H2O, Initial residual = 0.00347371, Final residual = 2.87207e-09, No Iterations 3
DILUPBiCGStab:  Solving for CH4, Initial residual = 0, Final residual = 0, No Iterations 0
DILUPBiCGStab:  Solving for CO2, Initial residual = 0.00347371, Final residual = 2.87206e-09, No Iterations 3
DILUPBiCGStab:  Solving for h, Initial residual = 0.00402909, Final residual = 3.15488e-09, No Iterations 3
min/max(T) = 299.422, 1044.97
GAMGPCG:  Solving for p_rgh, Initial residual = 0.0193152, Final residual = 6.63286e-07, No Iterations 4
diagonal:  Solving for rho, Initial residual = 0, Final residual = 0, No Iterations 0
time step continuity errors : sum local = 3.58447e-08, global = 4.59234e-09, cumulative = -2.4942e-07
GAMGPCG:  Solving for p_rgh, Initial residual = 0.00244984, Final residual = 1.33122e-07, No Iterations 4
diagonal:  Solving for rho, Initial residual = 0, Final residual = 0, No Iterations 0
time step continuity errors : sum local = 6.83735e-09, global = 1.83736e-11, cumulative = -2.49402e-07
DILUPBiCGStab:  Solving for omega, Initial residual = 0.000127669, Final residual = 2.40796e-09, No Iterations 2
bounding omega, min: -0.521101 max: 15702.9 average: 301.13
DILUPBiCGStab:  Solving for k, Initial residual = 0.00708144, Final residual = 1.15939e-09, No Iterations 3

ExecutionTime = 1.91 s  ClockTime = 2 s

    Overall     = 0.00148417, 0.01
Time = 264

diagonal:  Solving for rho, Initial residual = 0, Final residual = 0, No Iterations 0

Execution time for mesh.update() = 0 s

DILUPBiCGStab:  Solving for Ux, Initial residual = 0.00560894, Final residual = 6.27693e-09, No Iterations 3
DILUPBiCGStab:  Solving for Uy, Initial residual = 0.00829118, Final residual = 1.51922e-09, No Iterations 3
DILUPBiCGStab:  Solving for O2, Initial residual = 0.00346361, Final residual = 3.6782e-09, No Iterations 3
DILUPBiCGStab:  Solving for H2O, Initial residual = 0.00346386, Final residual = 3.6781e-09, No Iterations 3
DILUPBiCGStab:  Solving for CH4, Initial residual = 0, Final residual = 0, No Iterations 0
DILUPBiCGStab:  Solving for CO2, Initial residual = 0.00346386, Final residual = 3.67811e-09, No Iterations 3
DILUPBiCGStab:  Solving for h, Initial residual = 0.00401761, Final residual = 4.16448e-09, No Iterations 3
min/max(T) = 299.348, 1044.97
GAMGPCG:  Solving for p_rgh, Initial residual = 0.0190606, Final residual = 7.22603e-07, No Iterations 4
diagonal:  Solving for rho, Initial residual = 0, Final residual = 0, No Iterations 0
time step continuity errors : sum local = 3.93276e-08, global = 4.3182e-09, cumulative = -2.45084e-07
GAMGPCG:  Solving for p_rgh, Initial residual = 0.00244151, Final residual = 1.35886e-07, No Iterations 4
diagonal:  Solving for rho, Initial residual = 0, Final residual = 0, No Iterations 0
time step continuity errors : sum local = 6.94216e-09, global = 1.50331e-10, cumulative = -2.44933e-07
DILUPBiCGStab:  Solving for omega, Initial residual = 0.000127516, Final residual = 2.36798e-09, No Iterations 2
DILUPBiCGStab:  Solving for k, Initial residual = 0.00711287, Final residual = 3.53145e-11, No Iterations 4

ExecutionTime = 2.03 s  ClockTime = 2 s

    Overall     = 0.00148346, 0.01
Time = 265

diagonal:  Solving for rho, Initial residual = 0, Final residual = 0, No Iterations 0

Execution time for mesh.update() = 0 s

DILUPBiCGStab:  Solving for Ux, Initial residual = 0.00562399, Final residual = 6.26094e-09, No Iterations 3
DILUPBiCGStab:  Solving for Uy, Initial residual = 0.00827937, Final residual = 1.14059e-09, No Iterations 3
DILUPBiCGStab:  Solving for O2, Initial residual = 0.00346836, Final residual = 5.93732e-09, No Iterations 3
DILUPBiCGStab:  Solving for H2O, Initial residual = 0.00346774, Final residual = 5.93648e-09, No Iterations 3
DILUPBiCGStab:  Solving for CH4, Initial residual = 0, Final residual = 0, No Iterations 0
DILUPBiCGStab:  Solving for CO2, Initial residual = 0.00346774, Final residual = 5.93651e-09, No Iterations 3
DILUPBiCGStab:  Solving for h, Initial residual = 0.0040274, Final residual = 5.90879e-09, No Iterations 3
min/max(T) = 299.851, 1044.97
GAMGPCG:  Solving for p_rgh, Initial residual = 0.0194151, Final residual = 6.04952e-07, No Iterations 4
diagonal:  Solving for rho, Initial residual = 0, Final residual = 0, No Iterations 0
time step continuity errors : sum local = 3.25247e-08, global = 3.90553e-09, cumulative = -2.41028e-07
GAMGPCG:  Solving for p_rgh, Initial residual = 0.00243664, Final residual = 1.2721e-07, No Iterations 4
diagonal:  Solving for rho, Initial residual = 0, Final residual = 0, No Iterations 0
time step continuity errors : sum local = 6.55603e-09, global = 1.99017e-10, cumulative = -2.40829e-07
DILUPBiCGStab:  Solving for omega, Initial residual = 0.000130154, Final residual = 2.39635e-09, No Iterations 2
DILUPBiCGStab:  Solving for k, Initial residual = 0.00713269, Final residual = 3.62084e-11, No Iterations 4

ExecutionTime = 2.14 s  ClockTime = 2 s

    Overall     = 0.00149874, 0.01
Time = 266

diagonal:  Solving for rho, Initial residual = 0, Final residual = 0, No Iterations 0

Execution time for mesh.update() = 0 s

DILUPBiCGStab:  Solving for Ux, Initial residual = 0.00563954, Final residual = 6.76321e-09, No Iterations 3
DILUPBiCGStab:  Solving for Uy, Initial residual = 0.00827015, Final residual = 1.11958e-09, No Iterations 3
DILUPBiCGStab:  Solving for O2, Initial residual = 0.00347235, Final residual = 3.74764e-09, No Iterations 3
DILUPBiCGStab:  Solving for H2O, Initial residual = 0.00347254, Final residual = 3.7476e-09, No Iterations 3
DILUPBiCGStab:  Solving for CH4, Initial residual = 0, Final residual = 0, No Iterations 0
DILUPBiCGStab:  Solving for CO2, Initial residual = 0.00347254, Final residual = 3.74759e-09, No Iterations 3
DILUPBiCGStab:  Solving for h, Initial residual = 0.00403675, Final residual = 4.59811e-09, No Iterations 3
min/max(T) = 299.421, 1044.97
GAMGPCG:  Solving for p_rgh, Initial residual = 0.0193909, Final residual = 7.35844e-07, No Iterations 4
diagonal:  Solving for rho, Initial residual = 0, Final residual = 0, No Iterations 0
time step continuity errors : sum local = 3.97646e-08, global = 5.09094e-09, cumulative = -2.35738e-07
GAMGPCG:  Solving for p_rgh, Initial residual = 0.00244343, Final residual = 1.31007e-07, No Iterations 4
diagonal:  Solving for rho, Initial residual = 0, Final residual = 0, No Iterations 0
time step continuity errors : sum local = 6.67277e-09, global = 2.78784e-10, cumulative = -2.35459e-07
DILUPBiCGStab:  Solving for omega, Initial residual = 0.000130679, Final residual = 2.31778e-09, No Iterations 2
bounding omega, min: -5.49152 max: 15700.8 average: 301.044
DILUPBiCGStab:  Solving for k, Initial residual = 0.00714414, Final residual = 2.73248e-09, No Iterations 3

ExecutionTime = 2.26 s  ClockTime = 2 s

    Overall     = 0.00146362, 0.01
Time = 267

diagonal:  Solving for rho, Initial residual = 0, Final residual = 0, No Iterations 0

Execution time for mesh.update() = 0 s

DILUPBiCGStab:  Solving for Ux, Initial residual = 0.00563337, Final residual = 6.60719e-09, No Iterations 3
DILUPBiCGStab:  Solving for Uy, Initial residual = 0.00825375, Final residual = 1.08076e-09, No Iterations 3
DILUPBiCGStab:  Solving for O2, Initial residual = 0.00346095, Final residual = 3.06736e-09, No Iterations 3
DILUPBiCGStab:  Solving for H2O, Initial residual = 0.00346148, Final residual = 3.06736e-09, No Iterations 3
DILUPBiCGStab:  Solving for CH4, Initial residual = 0, Final residual = 0, No Iterations 0
DILUPBiCGStab:  Solving for CO2, Initial residual = 0.00346148, Final residual = 3.06736e-09, No Iterations 3
DILUPBiCGStab:  Solving for h, Initial residual = 0.00402258, Final residual = 3.4732e-09, No Iterations 3
min/max(T) = 299.346, 1044.97
GAMGPCG:  Solving for p_rgh, Initial residual = 0.0194787, Final residual = 6.24855e-07, No Iterations 4
diagonal:  Solving for rho, Initial residual = 0, Final residual = 0, No Iterations 0
time step continuity errors : sum local = 3.35657e-08, global = 3.87455e-09, cumulative = -2.31584e-07
GAMGPCG:  Solving for p_rgh, Initial residual = 0.00243967, Final residual = 1.40918e-07, No Iterations 4
diagonal:  Solving for rho, Initial residual = 0, Final residual = 0, No Iterations 0
time step continuity errors : sum local = 7.22029e-09, global = 4.7081e-10, cumulative = -2.31114e-07
DILUPBiCGStab:  Solving for omega, Initial residual = 0.000127424, Final residual = 2.32284e-09, No Iterations 2
DILUPBiCGStab:  Solving for k, Initial residual = 0.00717042, Final residual = 2.24609e-09, No Iterations 3

ExecutionTime = 2.37 s  ClockTime = 2 s

    Overall     = 0.00146617, 0.01
Time = 268

diagonal:  Solving for rho, Initial residual = 0, Final residual = 0, No Iterations 0

Execution time for mesh.update() = 0 s

DILUPBiCGStab:  Solving for Ux, Initial residual = 0.00564098, Final residual = 6.2091e-09, No Iterations 3
DILUPBiCGStab:  Solving for Uy, Initial residual = 0.00826031, Final residual = 9.71253e-09, No Iterations 3
DILUPBiCGStab:  Solving for O2, Initial residual = 0.00346132, Final residual = 2.96458e-09, No Iterations 3
DILUPBiCGStab:  Solving for H2O, Initial residual = 0.00346086, Final residual = 2.9647e-09, No Iterations 3
DILUPBiCGStab:  Solving for CH4, Initial residual = 0, Final residual = 0, No Iterations 0
DILUPBiCGStab:  Solving for CO2, Initial residual = 0.00346086, Final residual = 2.96471e-09, No Iterations 3
DILUPBiCGStab:  Solving for h, Initial residual = 0.00402846, Final residual = 2.75876e-09, No Iterations 3
min/max(T) = 299.861, 1044.97
GAMGPCG:  Solving for p_rgh, Initial residual = 0.0195252, Final residual = 5.99647e-07, No Iterations 4
diagonal:  Solving for rho, Initial residual = 0, Final residual = 0, No Iterations 0
time step continuity errors : sum local = 3.21638e-08, global = 4.19169e-09, cumulative = -2.26922e-07
GAMGPCG:  Solving for p_rgh, Initial residual = 0.00247666, Final residual = 1.12043e-07, No Iterations 4
diagonal:  Solving for rho, Initial residual = 0, Final residual = 0, No Iterations 0
time step continuity errors : sum local = 5.69497e-09, global = 2.64637e-10, cumulative = -2.26657e-07
DILUPBiCGStab:  Solving for omega, Initial residual = 0.000129358, Final residual = 2.23958e-09, No Iterations 2
DILUPBiCGStab:  Solving for k, Initial residual = 0.00720726, Final residual = 3.01497e-09, No Iterations 3

ExecutionTime = 2.49 s  ClockTime = 2 s

    Overall     = 0.00146806, 0.01
Time = 269

diagonal:  Solving for rho, Initial residual = 0, Final residual = 0, No Iterations 0

Execution time for mesh.update() = 0 s

DILUPBiCGStab:  Solving for Ux, Initial residual = 0.00565514, Final residual = 6.28782e-09, No Iterations 3
DILUPBiCGStab:  Solving for Uy, Initial residual = 0.00822826, Final residual = 8.7075e-09, No Iterations 3
DILUPBiCGStab:  Solving for O2, Initial residual = 0.00347143, Final residual = 2.91036e-09, No Iterations 3
DILUPBiCGStab:  Solving for H2O, Initial residual = 0.00347164, Final residual = 2.91037e-09, No Iterations 3
DILUPBiCGStab:  Solving for CH4, Initial residual = 0, Final residual = 0, No Iterations 0
DILUPBiCGStab:  Solving for CO2, Initial residual = 0.00347164, Final residual = 2.91037e-09, No Iterations 3
DILUPBiCGStab:  Solving for h, Initial residual = 0.00404041, Final residual = 2.82968e-09, No Iterations 3
min/max(T) = 299.458, 1044.97
GAMGPCG:  Solving for p_rgh, Initial residual = 0.0198862, Final residual = 5.34341e-07, No Iterations 4
diagonal:  Solving for rho, Initial residual = 0, Final residual = 0, No Iterations 0
time step continuity errors : sum local = 2.86021e-08, global = 3.47172e-09, cumulative = -2.23186e-07
GAMGPCG:  Solving for p_rgh, Initial residual = 0.00248245, Final residual = 1.13409e-07, No Iterations 4
diagonal:  Solving for rho, Initial residual = 0, Final residual = 0, No Iterations 0
time step continuity errors : sum local = 5.90538e-09, global = 4.64418e-10, cumulative = -2.22721e-07
DILUPBiCGStab:  Solving for omega, Initial residual = 0.00012764, Final residual = 2.24919e-09, No Iterations 2
DILUPBiCGStab:  Solving for k, Initial residual = 0.00723306, Final residual = 1.71132e-09, No Iterations 3

ExecutionTime = 2.61 s  ClockTime = 3 s

    Overall     = 0.00145201, 0.01
Time = 270

diagonal:  Solving for rho, Initial residual = 0, Final residual = 0, No Iterations 0

Execution time for mesh.update() = 0 s

DILUPBiCGStab:  Solving for Ux, Initial residual = 0.00567075, Final residual = 5.93322e-09, No Iterations 3
DILUPBiCGStab:  Solving for Uy, Initial residual = 0.00825249, Final residual = 7.9033e-09, No Iterations 3
GAMGPCG:  Solving for G, Initial residual = 0.163532, Final residual = 3.63643e-05, No Iterations 5
DILUPBiCGStab:  Solving for O2, Initial residual = 0.00347044, Final residual = 3.37635e-09, No Iterations 3
DILUPBiCGStab:  Solving for H2O, Initial residual = 0.00347007, Final residual = 3.37644e-09, No Iterations 3
DILUPBiCGStab:  Solving for CH4, Initial residual = 0, Final residual = 0, No Iterations 0
DILUPBiCGStab:  Solving for CO2, Initial residual = 0.00347007, Final residual = 3.37645e-09, No Iterations 3
DILUPBiCGStab:  Solving for h, Initial residual = 0.00403923, Final residual = 3.2562e-09, No Iterations 3
min/max(T) = 299.867, 1044.97
GAMGPCG:  Solving for p_rgh, Initial residual = 0.0203323, Final residual = 5.2498e-07, No Iterations 4
diagonal:  Solving for rho, Initial residual = 0, Final residual = 0, No Iterations 0
time step continuity errors : sum local = 2.81388e-08, global = 3.44637e-09, cumulative = -2.19275e-07
GAMGPCG:  Solving for p_rgh, Initial residual = 0.00253063, Final residual = 8.55265e-08, No Iterations 4
diagonal:  Solving for rho, Initial residual = 0, Final residual = 0, No Iterations 0
time step continuity errors : sum local = 4.44568e-09, global = 2.90973e-10, cumulative = -2.18984e-07
DILUPBiCGStab:  Solving for omega, Initial residual = 0.000128333, Final residual = 2.23309e-09, No Iterations 2
DILUPBiCGStab:  Solving for k, Initial residual = 0.0072629, Final residual = 7.11173e-09, No Iterations 3

ExecutionTime = 2.86 s  ClockTime = 3 s

    Overall     = 0.00145713, 0.01
Time = 271

diagonal:  Solving for rho, Initial residual = 0, Final residual = 0, No Iterations 0

Execution time for mesh.update() = 0 s

DILUPBiCGStab:  Solving for Ux, Initial residual = 0.00569623, Final residual = 6.23511e-09, No Iterations 3
DILUPBiCGStab:  Solving for Uy, Initial residual = 0.00821724, Final residual = 7.66824e-09, No Iterations 3
DILUPBiCGStab:  Solving for O2, Initial residual = 0.00348072, Final residual = 3.61379e-09, No Iterations 3
DILUPBiCGStab:  Solving for H2O, Initial residual = 0.00348089, Final residual = 3.61379e-09, No Iterations 3
DILUPBiCGStab:  Solving for CH4, Initial residual = 0, Final residual = 0, No Iterations 0
DILUPBiCGStab:  Solving for CO2, Initial residual = 0.00348089, Final residual = 3.61379e-09, No Iterations 3
DILUPBiCGStab:  Solving for h, Initial residual = 0.0040538, Final residual = 3.62141e-09, No Iterations 3
min/max(T) = 299.453, 1044.97
GAMGPCG:  Solving for p_rgh, Initial residual = 0.0203034, Final residual = 5.0851e-07, No Iterations 4
diagonal:  Solving for rho, Initial residual = 0, Final residual = 0, No Iterations 0
time step continuity errors : sum local = 2.7108e-08, global = 3.12643e-09, cumulative = -2.15857e-07
GAMGPCG:  Solving for p_rgh, Initial residual = 0.0025316, Final residual = 9.52708e-08, No Iterations 4
diagonal:  Solving for rho, Initial residual = 0, Final residual = 0, No Iterations 0
time step continuity errors : sum local = 5.02798e-09, global = 6.21248e-10, cumulative = -2.15236e-07
DILUPBiCGStab:  Solving for omega, Initial residual = 0.000128058, Final residual = 2.45091e-09, No Iterations 2
DILUPBiCGStab:  Solving for k, Initial residual = 0.00727972, Final residual = 4.13767e-09, No Iterations 3

ExecutionTime = 2.97 s  ClockTime = 3 s

    Overall     = 0.00144029, 0.01
Time = 272

diagonal:  Solving for rho, Initial residual = 0, Final residual = 0, No Iterations 0

Execution time for mesh.update() = 0.01 s

DILUPBiCGStab:  Solving for Ux, Initial residual = 0.00571331, Final residual = 5.87623e-09, No Iterations 3
DILUPBiCGStab:  Solving for Uy, Initial residual = 0.00823585, Final residual = 7.30849e-09, No Iterations 3
DILUPBiCGStab:  Solving for O2, Initial residual = 0.00347045, Final residual = 3.79765e-09, No Iterations 3
DILUPBiCGStab:  Solving for H2O, Initial residual = 0.00347007, Final residual = 3.79774e-09, No Iterations 3
DILUPBiCGStab:  Solving for CH4, Initial residual = 0, Final residual = 0, No Iterations 0
DILUPBiCGStab:  Solving for CO2, Initial residual = 0.00347007, Final residual = 3.79775e-09, No Iterations 3
DILUPBiCGStab:  Solving for h, Initial residual = 0.00404637, Final residual = 4.00187e-09, No Iterations 3
min/max(T) = 299.87, 1044.97
GAMGPCG:  Solving for p_rgh, Initial residual = 0.020634, Final residual = 5.2853e-07, No Iterations 4
diagonal:  Solving for rho, Initial residual = 0, Final residual = 0, No Iterations 0
time step continuity errors : sum local = 2.81679e-08, global = 3.39318e-09, cumulative = -2.11843e-07
GAMGPCG:  Solving for p_rgh, Initial residual = 0.00261577, Final residual = 8.93045e-08, No Iterations 4
diagonal:  Solving for rho, Initial residual = 0, Final residual = 0, No Iterations 0
time step continuity errors : sum local = 4.66232e-09, global = 3.64148e-10, cumulative = -2.11479e-07
DILUPBiCGStab:  Solving for omega, Initial residual = 0.000127865, Final residual = 2.44226e-09, No Iterations 2
DILUPBiCGStab:  Solving for k, Initial residual = 0.0072932, Final residual = 4.04495e-09, No Iterations 3

ExecutionTime = 3.09 s  ClockTime = 3 s

    Overall     = 0.00144268, 0.01
Time = 273

diagonal:  Solving for rho, Initial residual = 0, Final residual = 0, No Iterations 0

Execution time for mesh.update() = 0 s

DILUPBiCGStab:  Solving for Ux, Initial residual = 0.00572361, Final residual = 6.28601e-09, No Iterations 3
DILUPBiCGStab:  Solving for Uy, Initial residual = 0.00820481, Final residual = 7.2914e-09, No Iterations 3
DILUPBiCGStab:  Solving for O2, Initial residual = 0.0034799, Final residual = 3.9109e-09, No Iterations 3
DILUPBiCGStab:  Solving for H2O, Initial residual = 0.00348009, Final residual = 3.91091e-09, No Iterations 3
DILUPBiCGStab:  Solving for CH4, Initial residual = 0, Final residual = 0, No Iterations 0
DILUPBiCGStab:  Solving for CO2, Initial residual = 0.00348009, Final residual = 3.91091e-09, No Iterations 3
DILUPBiCGStab:  Solving for h, Initial residual = 0.00406073, Final residual = 4.0889e-09, No Iterations 3
min/max(T) = 299.415, 1044.97
GAMGPCG:  Solving for p_rgh, Initial residual = 0.0207071, Final residual = 5.01127e-07, No Iterations 4
diagonal:  Solving for rho, Initial residual = 0, Final residual = 0, No Iterations 0
time step continuity errors : sum local = 2.65197e-08, global = 2.66254e-09, cumulative = -2.08816e-07
GAMGPCG:  Solving for p_rgh, Initial residual = 0.00253737, Final residual = 1.03052e-07, No Iterations 4
diagonal:  Solving for rho, Initial residual = 0, Final residual = 0, No Iterations 0
time step continuity errors : sum local = 5.5174e-09, global = 7.10439e-10, cumulative = -2.08106e-07
DILUPBiCGStab:  Solving for omega, Initial residual = 0.000126339, Final residual = 2.31445e-09, No Iterations 2
DILUPBiCGStab:  Solving for k, Initial residual = 0.00732336, Final residual = 4.22288e-09, No Iterations 3

ExecutionTime = 3.21 s  ClockTime = 3 s

    Overall     = 0.00142943, 0.01
Time = 274

diagonal:  Solving for rho, Initial residual = 0, Final residual = 0, No Iterations 0

Execution time for mesh.update() = 0 s

DILUPBiCGStab:  Solving for Ux, Initial residual = 0.00573418, Final residual = 6.3226e-09, No Iterations 3
DILUPBiCGStab:  Solving for Uy, Initial residual = 0.00821035, Final residual = 7.21968e-09, No Iterations 3
DILUPBiCGStab:  Solving for O2, Initial residual = 0.00347589, Final residual = 3.41133e-09, No Iterations 3
DILUPBiCGStab:  Solving for H2O, Initial residual = 0.00347574, Final residual = 3.41146e-09, No Iterations 3
DILUPBiCGStab:  Solving for CH4, Initial residual = 0, Final residual = 0, No Iterations 0
DILUPBiCGStab:  Solving for CO2, Initial residual = 0.00347574, Final residual = 3.41146e-09, No Iterations 3
DILUPBiCGStab:  Solving for h, Initial residual = 0.00405645, Final residual = 3.79073e-09, No Iterations 3
min/max(T) = 299.868, 1044.97
GAMGPCG:  Solving for p_rgh, Initial residual = 0.0208379, Final residual = 5.16562e-07, No Iterations 4
diagonal:  Solving for rho, Initial residual = 0, Final residual = 0, No Iterations 0
time step continuity errors : sum local = 2.74581e-08, global = 2.87244e-09, cumulative = -2.05233e-07
GAMGPCG:  Solving for p_rgh, Initial residual = 0.00263818, Final residual = 9.93115e-08, No Iterations 4
diagonal:  Solving for rho, Initial residual = 0, Final residual = 0, No Iterations 0
time step continuity errors : sum local = 5.32887e-09, global = 7.14195e-10, cumulative = -2.04519e-07
DILUPBiCGStab:  Solving for omega, Initial residual = 0.000126301, Final residual = 2.19379e-09, No Iterations 2
DILUPBiCGStab:  Solving for k, Initial residual = 0.00735365, Final residual = 4.7707e-09, No Iterations 3

ExecutionTime = 3.32 s  ClockTime = 3 s

    Overall     = 0.00142858, 0.01
Time = 275

diagonal:  Solving for rho, Initial residual = 0, Final residual = 0, No Iterations 0

Execution time for mesh.update() = 0 s

DILUPBiCGStab:  Solving for Ux, Initial residual = 0.00576911, Final residual = 6.85772e-09, No Iterations 3
DILUPBiCGStab:  Solving for Uy, Initial residual = 0.00820329, Final residual = 7.92082e-09, No Iterations 3
DILUPBiCGStab:  Solving for O2, Initial residual = 0.00348954, Final residual = 3.30165e-09, No Iterations 3
DILUPBiCGStab:  Solving for H2O, Initial residual = 0.00348975, Final residual = 3.30165e-09, No Iterations 3
DILUPBiCGStab:  Solving for CH4, Initial residual = 0, Final residual = 0, No Iterations 0
DILUPBiCGStab:  Solving for CO2, Initial residual = 0.00348975, Final residual = 3.30165e-09, No Iterations 3
DILUPBiCGStab:  Solving for h, Initial residual = 0.00407607, Final residual = 3.68489e-09, No Iterations 3
min/max(T) = 299.383, 1044.97
GAMGPCG:  Solving for p_rgh, Initial residual = 0.0208664, Final residual = 4.90129e-07, No Iterations 4
diagonal:  Solving for rho, Initial residual = 0, Final residual = 0, No Iterations 0
time step continuity errors : sum local = 2.57284e-08, global = 2.40313e-09, cumulative = -2.02116e-07
GAMGPCG:  Solving for p_rgh, Initial residual = 0.00265833, Final residual = 1.16943e-07, No Iterations 4
diagonal:  Solving for rho, Initial residual = 0, Final residual = 0, No Iterations 0
time step continuity errors : sum local = 6.25453e-09, global = 7.95917e-10, cumulative = -2.0132e-07
DILUPBiCGStab:  Solving for omega, Initial residual = 0.000125606, Final residual = 2.06129e-09, No Iterations 2
DILUPBiCGStab:  Solving for k, Initial residual = 0.00738275, Final residual = 5.7919e-09, No Iterations 3

ExecutionTime = 3.44 s  ClockTime = 3 s

    Overall     = 0.00142096, 0.01
Time = 276

diagonal:  Solving for rho, Initial residual = 0, Final residual = 0, No Iterations 0

Execution time for mesh.update() = 0 s

DILUPBiCGStab:  Solving for Ux, Initial residual = 0.00575864, Final residual = 6.61042e-09, No Iterations 3
DILUPBiCGStab:  Solving for Uy, Initial residual = 0.00816864, Final residual = 7.70999e-09, No Iterations 3
DILUPBiCGStab:  Solving for O2, Initial residual = 0.00349057, Final residual = 2.98774e-09, No Iterations 3
DILUPBiCGStab:  Solving for H2O, Initial residual = 0.00349046, Final residual = 2.98776e-09, No Iterations 3
DILUPBiCGStab:  Solving for CH4, Initial residual = 0, Final residual = 0, No Iterations 0
DILUPBiCGStab:  Solving for CO2, Initial residual = 0.00349046, Final residual = 2.98776e-09, No Iterations 3
DILUPBiCGStab:  Solving for h, Initial residual = 0.00407985, Final residual = 3.37144e-09, No Iterations 3
min/max(T) = 299.808, 1044.97
GAMGPCG:  Solving for p_rgh, Initial residual = 0.0204223, Final residual = 5.27856e-07, No Iterations 4
diagonal:  Solving for rho, Initial residual = 0, Final residual = 0, No Iterations 0
time step continuity errors : sum local = 2.79672e-08, global = 2.11453e-09, cumulative = -1.99206e-07
GAMGPCG:  Solving for p_rgh, Initial residual = 0.00258004, Final residual = 9.07462e-07, No Iterations 3
diagonal:  Solving for rho, Initial residual = 0, Final residual = 0, No Iterations 0
time step continuity errors : sum local = 4.59302e-08, global = 3.32255e-09, cumulative = -1.95883e-07
DILUPBiCGStab:  Solving for omega, Initial residual = 0.000126807, Final residual = 2.00417e-09, No Iterations 2
DILUPBiCGStab:  Solving for k, Initial residual = 0.00742556, Final residual = 8.9625e-09, No Iterations 3

ExecutionTime = 3.55 s  ClockTime = 4 s

    Overall     = 0.00141703, 0.01
Time = 277

diagonal:  Solving for rho, Initial residual = 0, Final residual = 0, No Iterations 0

Execution time for mesh.update() = 0 s

DILUPBiCGStab:  Solving for Ux, Initial residual = 0.00578667, Final residual = 7.46513e-09, No Iterations 3
DILUPBiCGStab:  Solving for Uy, Initial residual = 0.0081509, Final residual = 7.86598e-09, No Iterations 3
DILUPBiCGStab:  Solving for O2, Initial residual = 0.00350183, Final residual = 3.10305e-09, No Iterations 3
DILUPBiCGStab:  Solving for H2O, Initial residual = 0.00350205, Final residual = 3.10302e-09, No Iterations 3
DILUPBiCGStab:  Solving for CH4, Initial residual = 0, Final residual = 0, No Iterations 0
DILUPBiCGStab:  Solving for CO2, Initial residual = 0.00350205, Final residual = 3.10302e-09, No Iterations 3
DILUPBiCGStab:  Solving for h, Initial residual = 0.00409689, Final residual = 3.15622e-09, No Iterations 3
min/max(T) = 299.372, 1044.97
GAMGPCG:  Solving for p_rgh, Initial residual = 0.0207289, Final residual = 4.58055e-07, No Iterations 4
diagonal:  Solving for rho, Initial residual = 0, Final residual = 0, No Iterations 0
time step continuity errors : sum local = 2.42331e-08, global = 1.63847e-09, cumulative = -1.94245e-07
GAMGPCG:  Solving for p_rgh, Initial residual = 0.00263857, Final residual = 9.00638e-07, No Iterations 3
diagonal:  Solving for rho, Initial residual = 0, Final residual = 0, No Iterations 0
time step continuity errors : sum local = 4.55246e-08, global = 4.03499e-09, cumulative = -1.9021e-07
DILUPBiCGStab:  Solving for omega, Initial residual = 0.000126281, Final residual = 1.79711e-09, No Iterations 2
DILUPBiCGStab:  Solving for k, Initial residual = 0.00746449, Final residual = 4.53802e-09, No Iterations 3

ExecutionTime = 3.66 s  ClockTime = 4 s

    Overall     = 0.00141217, 0.01
Time = 278

diagonal:  Solving for rho, Initial residual = 0, Final residual = 0, No Iterations 0

Execution time for mesh.update() = 0.01 s

DILUPBiCGStab:  Solving for Ux, Initial residual = 0.00578809, Final residual = 6.87059e-09, No Iterations 3
DILUPBiCGStab:  Solving for Uy, Initial residual = 0.00812653, Final residual = 7.8572e-09, No Iterations 3
DILUPBiCGStab:  Solving for O2, Initial residual = 0.00350475, Final residual = 2.99518e-09, No Iterations 3
DILUPBiCGStab:  Solving for H2O, Initial residual = 0.00350442, Final residual = 2.99513e-09, No Iterations 3
DILUPBiCGStab:  Solving for CH4, Initial residual = 0, Final residual = 0, No Iterations 0
DILUPBiCGStab:  Solving for CO2, Initial residual = 0.00350442, Final residual = 2.99513e-09, No Iterations 3
DILUPBiCGStab:  Solving for h, Initial residual = 0.00409936, Final residual = 3.07397e-09, No Iterations 3
min/max(T) = 299.803, 1044.97
GAMGPCG:  Solving for p_rgh, Initial residual = 0.0203735, Final residual = 4.8254e-07, No Iterations 4
diagonal:  Solving for rho, Initial residual = 0, Final residual = 0, No Iterations 0
time step continuity errors : sum local = 2.56698e-08, global = 2.53385e-09, cumulative = -1.87676e-07
GAMGPCG:  Solving for p_rgh, Initial residual = 0.00265761, Final residual = 8.3517e-07, No Iterations 3
diagonal:  Solving for rho, Initial residual = 0, Final residual = 0, No Iterations 0
time step continuity errors : sum local = 4.26455e-08, global = 5.6689e-09, cumulative = -1.82007e-07
DILUPBiCGStab:  Solving for omega, Initial residual = 0.000127162, Final residual = 1.74971e-09, No Iterations 2
DILUPBiCGStab:  Solving for k, Initial residual = 0.00749647, Final residual = 3.62504e-09, No Iterations 3

ExecutionTime = 3.78 s  ClockTime = 4 s

    Overall     = 0.0014085, 0.01
Time = 279

diagonal:  Solving for rho, Initial residual = 0, Final residual = 0, No Iterations 0

Execution time for mesh.update() = 0 s

DILUPBiCGStab:  Solving for Ux, Initial residual = 0.00581554, Final residual = 6.57038e-09, No Iterations 3
DILUPBiCGStab:  Solving for Uy, Initial residual = 0.00811423, Final residual = 8.20607e-09, No Iterations 3
DILUPBiCGStab:  Solving for O2, Initial residual = 0.00351673, Final residual = 2.81274e-09, No Iterations 3
DILUPBiCGStab:  Solving for H2O, Initial residual = 0.00351697, Final residual = 2.81273e-09, No Iterations 3
DILUPBiCGStab:  Solving for CH4, Initial residual = 0, Final residual = 0, No Iterations 0
DILUPBiCGStab:  Solving for CO2, Initial residual = 0.00351697, Final residual = 2.81273e-09, No Iterations 3
DILUPBiCGStab:  Solving for h, Initial residual = 0.00411384, Final residual = 2.92509e-09, No Iterations 3
min/max(T) = 299.368, 1044.97
GAMGPCG:  Solving for p_rgh, Initial residual = 0.0207351, Final residual = 5.3585e-07, No Iterations 4
diagonal:  Solving for rho, Initial residual = 0, Final residual = 0, No Iterations 0
time step continuity errors : sum local = 2.79793e-08, global = 9.56084e-10, cumulative = -1.81051e-07
GAMGPCG:  Solving for p_rgh, Initial residual = 0.00263326, Final residual = 8.79385e-07, No Iterations 3
diagonal:  Solving for rho, Initial residual = 0, Final residual = 0, No Iterations 0
time step continuity errors : sum local = 4.42661e-08, global = 7.14345e-09, cumulative = -1.73907e-07
DILUPBiCGStab:  Solving for omega, Initial residual = 0.000126744, Final residual = 1.67341e-09, No Iterations 2
DILUPBiCGStab:  Solving for k, Initial residual = 0.0075334, Final residual = 8.28807e-10, No Iterations 3

ExecutionTime = 3.89 s  ClockTime = 4 s

    Overall     = 0.00140485, 0.01
Time = 280

diagonal:  Solving for rho, Initial residual = 0, Final residual = 0, No Iterations 0

Execution time for mesh.update() = 0 s

DILUPBiCGStab:  Solving for Ux, Initial residual = 0.0058078, Final residual = 5.87089e-09, No Iterations 3
DILUPBiCGStab:  Solving for Uy, Initial residual = 0.00807918, Final residual = 1.01188e-09, No Iterations 3
GAMGPCG:  Solving for G, Initial residual = 0.172698, Final residual = 9.60598e-05, No Iterations 5
DILUPBiCGStab:  Solving for O2, Initial residual = 0.00351815, Final residual = 2.8808e-09, No Iterations 3
DILUPBiCGStab:  Solving for H2O, Initial residual = 0.00351769, Final residual = 2.88074e-09, No Iterations 3
DILUPBiCGStab:  Solving for CH4, Initial residual = 0, Final residual = 0, No Iterations 0
DILUPBiCGStab:  Solving for CO2, Initial residual = 0.00351769, Final residual = 2.88075e-09, No Iterations 3
DILUPBiCGStab:  Solving for h, Initial residual = 0.00411664, Final residual = 2.92787e-09, No Iterations 3
min/max(T) = 299.78, 1044.97
GAMGPCG:  Solving for p_rgh, Initial residual = 0.019867, Final residual = 5.77301e-07, No Iterations 4
diagonal:  Solving for rho, Initial residual = 0, Final residual = 0, No Iterations 0
time step continuity errors : sum local = 3.03435e-08, global = 6.41751e-11, cumulative = -1.73843e-07
GAMGPCG:  Solving for p_rgh, Initial residual = 0.00265424, Final residual = 9.68528e-07, No Iterations 3
diagonal:  Solving for rho, Initial residual = 0, Final residual = 0, No Iterations 0
time step continuity errors : sum local = 4.93199e-08, global = 8.5201e-09, cumulative = -1.65323e-07
DILUPBiCGStab:  Solving for omega, Initial residual = 0.000127207, Final residual = 1.70516e-09, No Iterations 2
DILUPBiCGStab:  Solving for k, Initial residual = 0.00755313, Final residual = 7.77594e-09, No Iterations 3

ExecutionTime = 4.14 s  ClockTime = 4 s

    Overall     = 0.00140025, 0.01
Time = 281

diagonal:  Solving for rho, Initial residual = 0, Final residual = 0, No Iterations 0

Execution time for mesh.update() = 0 s

DILUPBiCGStab:  Solving for Ux, Initial residual = 0.00581772, Final residual = 5.08565e-09, No Iterations 3
DILUPBiCGStab:  Solving for Uy, Initial residual = 0.00804516, Final residual = 1.13826e-09, No Iterations 3
DILUPBiCGStab:  Solving for O2, Initial residual = 0.00352663, Final residual = 2.61819e-09, No Iterations 3
DILUPBiCGStab:  Solving for H2O, Initial residual = 0.00352688, Final residual = 2.61817e-09, No Iterations 3
DILUPBiCGStab:  Solving for CH4, Initial residual = 0, Final residual = 0, No Iterations 0
DILUPBiCGStab:  Solving for CO2, Initial residual = 0.00352688, Final residual = 2.61817e-09, No Iterations 3
DILUPBiCGStab:  Solving for h, Initial residual = 0.00413111, Final residual = 2.67206e-09, No Iterations 3
min/max(T) = 299.359, 1044.97
GAMGPCG:  Solving for p_rgh, Initial residual = 0.0198304, Final residual = 4.55929e-07, No Iterations 4
diagonal:  Solving for rho, Initial residual = 0, Final residual = 0, No Iterations 0
time step continuity errors : sum local = 2.38298e-08, global = -1.89991e-09, cumulative = -1.67223e-07
GAMGPCG:  Solving for p_rgh, Initial residual = 0.00263331, Final residual = 1.84049e-07, No Iterations 4
diagonal:  Solving for rho, Initial residual = 0, Final residual = 0, No Iterations 0
time step continuity errors : sum local = 9.61967e-09, global = 1.55989e-10, cumulative = -1.67067e-07
DILUPBiCGStab:  Solving for omega, Initial residual = 0.00012723, Final residual = 1.71286e-09, No Iterations 2
DILUPBiCGStab:  Solving for k, Initial residual = 0.00757632, Final residual = 5.69382e-09, No Iterations 3

ExecutionTime = 4.25 s  ClockTime = 4 s

    Overall     = 0.00139683, 0.01
Time = 282

diagonal:  Solving for rho, Initial residual = 0, Final residual = 0, No Iterations 0

Execution time for mesh.update() = 0 s

DILUPBiCGStab:  Solving for Ux, Initial residual = 0.00581924, Final residual = 5.34141e-09, No Iterations 3
DILUPBiCGStab:  Solving for Uy, Initial residual = 0.00800201, Final residual = 1.13552e-09, No Iterations 3
DILUPBiCGStab:  Solving for O2, Initial residual = 0.00352308, Final residual = 2.59574e-09, No Iterations 3
DILUPBiCGStab:  Solving for H2O, Initial residual = 0.00352261, Final residual = 2.5957e-09, No Iterations 3
DILUPBiCGStab:  Solving for CH4, Initial residual = 0, Final residual = 0, No Iterations 0
DILUPBiCGStab:  Solving for CO2, Initial residual = 0.00352261, Final residual = 2.59571e-09, No Iterations 3
DILUPBiCGStab:  Solving for h, Initial residual = 0.00412778, Final residual = 2.57784e-09, No Iterations 3
min/max(T) = 299.747, 1044.97
GAMGPCG:  Solving for p_rgh, Initial residual = 0.0196322, Final residual = 6.68588e-07, No Iterations 4
diagonal:  Solving for rho, Initial residual = 0, Final residual = 0, No Iterations 0
time step continuity errors : sum local = 3.55185e-08, global = -4.57982e-10, cumulative = -1.67525e-07
GAMGPCG:  Solving for p_rgh, Initial residual = 0.00261916, Final residual = 2.00907e-07, No Iterations 4
diagonal:  Solving for rho, Initial residual = 0, Final residual = 0, No Iterations 0
time step continuity errors : sum local = 1.04001e-08, global = 4.11622e-10, cumulative = -1.67113e-07
DILUPBiCGStab:  Solving for omega, Initial residual = 0.000126797, Final residual = 1.7003e-09, No Iterations 2
DILUPBiCGStab:  Solving for k, Initial residual = 0.00759243, Final residual = 5.00704e-09, No Iterations 3

ExecutionTime = 4.37 s  ClockTime = 4 s

    Overall     = 0.00139185, 0.01
Time = 283

diagonal:  Solving for rho, Initial residual = 0, Final residual = 0, No Iterations 0

Execution time for mesh.update() = 0 s

DILUPBiCGStab:  Solving for Ux, Initial residual = 0.00583471, Final residual = 5.02946e-09, No Iterations 3
DILUPBiCGStab:  Solving for Uy, Initial residual = 0.00798622, Final residual = 9.72346e-10, No Iterations 3
DILUPBiCGStab:  Solving for O2, Initial residual = 0.00353119, Final residual = 3.06454e-09, No Iterations 3
DILUPBiCGStab:  Solving for H2O, Initial residual = 0.00353145, Final residual = 3.0645e-09, No Iterations 3
DILUPBiCGStab:  Solving for CH4, Initial residual = 0, Final residual = 0, No Iterations 0
DILUPBiCGStab:  Solving for CO2, Initial residual = 0.00353145, Final residual = 3.0645e-09, No Iterations 3
DILUPBiCGStab:  Solving for h, Initial residual = 0.00414037, Final residual = 3.05086e-09, No Iterations 3
min/max(T) = 299.355, 1044.97
GAMGPCG:  Solving for p_rgh, Initial residual = 0.0193237, Final residual = 5.55918e-07, No Iterations 4
diagonal:  Solving for rho, Initial residual = 0, Final residual = 0, No Iterations 0
time step continuity errors : sum local = 2.89354e-08, global = -2.2227e-09, cumulative = -1.69336e-07
GAMGPCG:  Solving for p_rgh, Initial residual = 0.00267912, Final residual = 2.02673e-07, No Iterations 4
diagonal:  Solving for rho, Initial residual = 0, Final residual = 0, No Iterations 0
time step continuity errors : sum local = 1.04334e-08, global = 7.44112e-10, cumulative = -1.68592e-07
DILUPBiCGStab:  Solving for omega, Initial residual = 0.000126594, Final residual = 1.68225e-09, No Iterations 2
DILUPBiCGStab:  Solving for k, Initial residual = 0.00760023, Final residual = 8.23992e-09, No Iterations 3

ExecutionTime = 4.48 s  ClockTime = 4 s

    Overall     = 0.00138855, 0.01
Time = 284

diagonal:  Solving for rho, Initial residual = 0, Final residual = 0, No Iterations 0

Execution time for mesh.update() = 0 s

DILUPBiCGStab:  Solving for Ux, Initial residual = 0.00583939, Final residual = 4.75341e-09, No Iterations 3
DILUPBiCGStab:  Solving for Uy, Initial residual = 0.00792216, Final residual = 9.96391e-09, No Iterations 3
DILUPBiCGStab:  Solving for O2, Initial residual = 0.0035318, Final residual = 3.39852e-09, No Iterations 3
DILUPBiCGStab:  Solving for H2O, Initial residual = 0.00353145, Final residual = 3.39831e-09, No Iterations 3
DILUPBiCGStab:  Solving for CH4, Initial residual = 0, Final residual = 0, No Iterations 0
DILUPBiCGStab:  Solving for CO2, Initial residual = 0.00353145, Final residual = 3.39831e-09, No Iterations 3
DILUPBiCGStab:  Solving for h, Initial residual = 0.004141, Final residual = 3.39306e-09, No Iterations 3
min/max(T) = 299.63, 1044.97
GAMGPCG:  Solving for p_rgh, Initial residual = 0.0191963, Final residual = 8.51293e-07, No Iterations 4
diagonal:  Solving for rho, Initial residual = 0, Final residual = 0, No Iterations 0
time step continuity errors : sum local = 4.49351e-08, global = -1.68916e-09, cumulative = -1.70281e-07
GAMGPCG:  Solving for p_rgh, Initial residual = 0.00261437, Final residual = 2.64296e-07, No Iterations 4
diagonal:  Solving for rho, Initial residual = 0, Final residual = 0, No Iterations 0
time step continuity errors : sum local = 1.35027e-08, global = 1.46033e-09, cumulative = -1.68821e-07
DILUPBiCGStab:  Solving for omega, Initial residual = 0.000126932, Final residual = 1.70662e-09, No Iterations 2
DILUPBiCGStab:  Solving for k, Initial residual = 0.00762609, Final residual = 1.28956e-09, No Iterations 3

ExecutionTime = 4.6 s  ClockTime = 5 s

    Overall     = 0.00138051, 0.01
Time = 285

diagonal:  Solving for rho, Initial residual = 0, Final residual = 0, No Iterations 0

Execution time for mesh.update() = 0 s

DILUPBiCGStab:  Solving for Ux, Initial residual = 0.00584431, Final residual = 5.02962e-09, No Iterations 3
DILUPBiCGStab:  Solving for Uy, Initial residual = 0.00791375, Final residual = 7.44482e-09, No Iterations 3
DILUPBiCGStab:  Solving for O2, Initial residual = 0.00354047, Final residual = 3.43254e-09, No Iterations 3
DILUPBiCGStab:  Solving for H2O, Initial residual = 0.00354078, Final residual = 3.43244e-09, No Iterations 3
DILUPBiCGStab:  Solving for CH4, Initial residual = 0, Final residual = 0, No Iterations 0
DILUPBiCGStab:  Solving for CO2, Initial residual = 0.00354078, Final residual = 3.43244e-09, No Iterations 3
DILUPBiCGStab:  Solving for h, Initial residual = 0.00415932, Final residual = 3.71973e-09, No Iterations 3
min/max(T) = 299.347, 1044.97
GAMGPCG:  Solving for p_rgh, Initial residual = 0.0194401, Final residual = 7.08275e-07, No Iterations 4
diagonal:  Solving for rho, Initial residual = 0, Final residual = 0, No Iterations 0
time step continuity errors : sum local = 3.68756e-08, global = -4.23002e-09, cumulative = -1.73051e-07
GAMGPCG:  Solving for p_rgh, Initial residual = 0.00268926, Final residual = 2.58798e-07, No Iterations 4
diagonal:  Solving for rho, Initial residual = 0, Final residual = 0, No Iterations 0
time step continuity errors : sum local = 1.32515e-08, global = 1.55668e-09, cumulative = -1.71494e-07
DILUPBiCGStab:  Solving for omega, Initial residual = 0.000126375, Final residual = 1.63021e-09, No Iterations 2
DILUPBiCGStab:  Solving for k, Initial residual = 0.00765018, Final residual = 2.19623e-09, No Iterations 3

ExecutionTime = 4.71 s  ClockTime = 5 s

    Overall     = 0.00137897, 0.01
Time = 286

diagonal:  Solving for rho, Initial residual = 0, Final residual = 0, No Iterations 0

Execution time for mesh.update() = 0 s

DILUPBiCGStab:  Solving for Ux, Initial residual = 0.00585177, Final residual = 4.9083e-09, No Iterations 3
DILUPBiCGStab:  Solving for Uy, Initial residual = 0.00787794, Final residual = 7.35482e-09, No Iterations 3
DILUPBiCGStab:  Solving for O2, Initial residual = 0.00353963, Final residual = 2.79538e-09, No Iterations 3
DILUPBiCGStab:  Solving for H2O, Initial residual = 0.0035395, Final residual = 2.7953e-09, No Iterations 3
DILUPBiCGStab:  Solving for CH4, Initial residual = 0, Final residual = 0, No Iterations 0
DILUPBiCGStab:  Solving for CO2, Initial residual = 0.0035395, Final residual = 2.7953e-09, No Iterations 3
DILUPBiCGStab:  Solving for h, Initial residual = 0.00415993, Final residual = 2.8442e-09, No Iterations 3
min/max(T) = 299.524, 1044.97
GAMGPCG:  Solving for p_rgh, Initial residual = 0.0190371, Final residual = 9.41132e-07, No Iterations 4
diagonal:  Solving for rho, Initial residual = 0, Final residual = 0, No Iterations 0
time step continuity errors : sum local = 4.91334e-08, global = -3.57767e-09, cumulative = -1.75072e-07
GAMGPCG:  Solving for p_rgh, Initial residual = 0.00262677, Final residual = 2.86398e-07, No Iterations 4
diagonal:  Solving for rho, Initial residual = 0, Final residual = 0, No Iterations 0
time step continuity errors : sum local = 1.46373e-08, global = 1.9215e-09, cumulative = -1.7315e-07
DILUPBiCGStab:  Solving for omega, Initial residual = 0.000125649, Final residual = 1.57545e-09, No Iterations 2
DILUPBiCGStab:  Solving for k, Initial residual = 0.00769411, Final residual = 3.9898e-11, No Iterations 4

ExecutionTime = 4.83 s  ClockTime = 5 s

    Overall     = 0.00137209, 0.01
Time = 287

diagonal:  Solving for rho, Initial residual = 0, Final residual = 0, No Iterations 0

Execution time for mesh.update() = 0 s

DILUPBiCGStab:  Solving for Ux, Initial residual = 0.00586333, Final residual = 5.14398e-09, No Iterations 3
DILUPBiCGStab:  Solving for Uy, Initial residual = 0.00786834, Final residual = 6.51811e-09, No Iterations 3
DILUPBiCGStab:  Solving for O2, Initial residual = 0.00354106, Final residual = 2.43642e-09, No Iterations 3
DILUPBiCGStab:  Solving for H2O, Initial residual = 0.00354146, Final residual = 2.43641e-09, No Iterations 3
DILUPBiCGStab:  Solving for CH4, Initial residual = 0, Final residual = 0, No Iterations 0
DILUPBiCGStab:  Solving for CO2, Initial residual = 0.00354146, Final residual = 2.43641e-09, No Iterations 3
DILUPBiCGStab:  Solving for h, Initial residual = 0.00416646, Final residual = 2.58503e-09, No Iterations 3
min/max(T) = 299.356, 1044.97
GAMGPCG:  Solving for p_rgh, Initial residual = 0.0189465, Final residual = 9.22795e-07, No Iterations 4
diagonal:  Solving for rho, Initial residual = 0, Final residual = 0, No Iterations 0
time step continuity errors : sum local = 4.81953e-08, global = -4.8814e-09, cumulative = -1.78032e-07
GAMGPCG:  Solving for p_rgh, Initial residual = 0.00273278, Final residual = 2.64807e-07, No Iterations 4
diagonal:  Solving for rho, Initial residual = 0, Final residual = 0, No Iterations 0
time step continuity errors : sum local = 1.36957e-08, global = 1.67054e-09, cumulative = -1.76361e-07
DILUPBiCGStab:  Solving for omega, Initial residual = 0.000124422, Final residual = 1.58724e-09, No Iterations 2
DILUPBiCGStab:  Solving for k, Initial residual = 0.00772399, Final residual = 9.75029e-09, No Iterations 3

ExecutionTime = 4.95 s  ClockTime = 5 s

    Overall     = 0.00137229, 0.01
Time = 288

diagonal:  Solving for rho, Initial residual = 0, Final residual = 0, No Iterations 0

Execution time for mesh.update() = 0 s

DILUPBiCGStab:  Solving for Ux, Initial residual = 0.00586253, Final residual = 5.22925e-09, No Iterations 3
DILUPBiCGStab:  Solving for Uy, Initial residual = 0.00780396, Final residual = 6.06746e-09, No Iterations 3
DILUPBiCGStab:  Solving for O2, Initial residual = 0.00353996, Final residual = 2.27456e-09, No Iterations 3
DILUPBiCGStab:  Solving for H2O, Initial residual = 0.00354039, Final residual = 2.2746e-09, No Iterations 3
DILUPBiCGStab:  Solving for CH4, Initial residual = 0, Final residual = 0, No Iterations 0
DILUPBiCGStab:  Solving for CO2, Initial residual = 0.00354039, Final residual = 2.2746e-09, No Iterations 3
DILUPBiCGStab:  Solving for h, Initial residual = 0.00416109, Final residual = 2.47345e-09, No Iterations 3
min/max(T) = 299.418, 1044.97
GAMGPCG:  Solving for p_rgh, Initial residual = 0.0187044, Final residual = 9.89488e-07, No Iterations 4
diagonal:  Solving for rho, Initial residual = 0, Final residual = 0, No Iterations 0
time step continuity errors : sum local = 5.08755e-08, global = -4.51499e-09, cumulative = -1.80876e-07
GAMGPCG:  Solving for p_rgh, Initial residual = 0.0027026, Final residual = 3.15565e-07, No Iterations 4
diagonal:  Solving for rho, Initial residual = 0, Final residual = 0, No Iterations 0
time step continuity errors : sum local = 1.61443e-08, global = 2.22986e-09, cumulative = -1.78646e-07
DILUPBiCGStab:  Solving for omega, Initial residual = 0.000124183, Final residual = 1.61367e-09, No Iterations 2
DILUPBiCGStab:  Solving for k, Initial residual = 0.007761, Final residual = 5.59976e-09, No Iterations 3

ExecutionTime = 5.06 s  ClockTime = 5 s

    Overall     = 0.00136284, 0.01
Time = 289

diagonal:  Solving for rho, Initial residual = 0, Final residual = 0, No Iterations 0

Execution time for mesh.update() = 0 s

DILUPBiCGStab:  Solving for Ux, Initial residual = 0.00586458, Final residual = 4.70556e-09, No Iterations 3
DILUPBiCGStab:  Solving for Uy, Initial residual = 0.00779018, Final residual = 6.19711e-09, No Iterations 3
DILUPBiCGStab:  Solving for O2, Initial residual = 0.00354554, Final residual = 2.25675e-09, No Iterations 3
DILUPBiCGStab:  Solving for H2O, Initial residual = 0.00354602, Final residual = 2.25671e-09, No Iterations 3
DILUPBiCGStab:  Solving for CH4, Initial residual = 0, Final residual = 0, No Iterations 0
DILUPBiCGStab:  Solving for CO2, Initial residual = 0.00354602, Final residual = 2.25671e-09, No Iterations 3
DILUPBiCGStab:  Solving for h, Initial residual = 0.00417416, Final residual = 2.45024e-09, No Iterations 3
min/max(T) = 299.359, 1044.97
GAMGPCG:  Solving for p_rgh, Initial residual = 0.0184478, Final residual = 9.98198e-07, No Iterations 4
diagonal:  Solving for rho, Initial residual = 0, Final residual = 0, No Iterations 0
time step continuity errors : sum local = 5.12452e-08, global = -6.0133e-09, cumulative = -1.84659e-07
GAMGPCG:  Solving for p_rgh, Initial residual = 0.0026653, Final residual = 3.19575e-07, No Iterations 4
diagonal:  Solving for rho, Initial residual = 0, Final residual = 0, No Iterations 0
time step continuity errors : sum local = 1.63269e-08, global = 2.08179e-09, cumulative = -1.82578e-07
DILUPBiCGStab:  Solving for omega, Initial residual = 0.000123761, Final residual = 1.79642e-09, No Iterations 2
DILUPBiCGStab:  Solving for k, Initial residual = 0.00778853, Final residual = 2.81423e-09, No Iterations 3

ExecutionTime = 5.17 s  ClockTime = 5 s

    Overall     = 0.00136311, 0.01
Time = 290

diagonal:  Solving for rho, Initial residual = 0, Final residual = 0, No Iterations 0

Execution time for mesh.update() = 0 s

DILUPBiCGStab:  Solving for Ux, Initial residual = 0.0058623, Final residual = 4.5359e-09, No Iterations 3
DILUPBiCGStab:  Solving for Uy, Initial residual = 0.00774102, Final residual = 7.13033e-09, No Iterations 3
GAMGPCG:  Solving for G, Initial residual = 0.172805, Final residual = 4.87295e-05, No Iterations 6
DILUPBiCGStab:  Solving for O2, Initial residual = 0.00354471, Final residual = 2.30065e-09, No Iterations 3
DILUPBiCGStab:  Solving for H2O, Initial residual = 0.00354523, Final residual = 2.30066e-09, No Iterations 3
DILUPBiCGStab:  Solving for CH4, Initial residual = 0, Final residual = 0, No Iterations 0
DILUPBiCGStab:  Solving for CO2, Initial residual = 0.00354523, Final residual = 2.30067e-09, No Iterations 3
DILUPBiCGStab:  Solving for h, Initial residual = 0.00417184, Final residual = 2.51021e-09, No Iterations 3
min/max(T) = 299.376, 1044.97
GAMGPCG:  Solving for p_rgh, Initial residual = 0.0184128, Final residual = 1.21489e-07, No Iterations 5
diagonal:  Solving for rho, Initial residual = 0, Final residual = 0, No Iterations 0
time step continuity errors : sum local = 6.60136e-09, global = 2.49486e-10, cumulative = -1.82328e-07
GAMGPCG:  Solving for p_rgh, Initial residual = 0.00261659, Final residual = 3.54976e-07, No Iterations 4
diagonal:  Solving for rho, Initial residual = 0, Final residual = 0, No Iterations 0
time step continuity errors : sum local = 1.80446e-08, global = 2.48556e-09, cumulative = -1.79843e-07
DILUPBiCGStab:  Solving for omega, Initial residual = 0.000122958, Final residual = 1.76772e-09, No Iterations 2
DILUPBiCGStab:  Solving for k, Initial residual = 0.00778895, Final residual = 2.93553e-09, No Iterations 3

ExecutionTime = 5.43 s  ClockTime = 5 s

    Overall     = 0.00135365, 0.01
Time = 291

diagonal:  Solving for rho, Initial residual = 0, Final residual = 0, No Iterations 0

Execution time for mesh.update() = 0.01 s

DILUPBiCGStab:  Solving for Ux, Initial residual = 0.00586978, Final residual = 4.10566e-09, No Iterations 3
DILUPBiCGStab:  Solving for Uy, Initial residual = 0.00773536, Final residual = 5.21478e-09, No Iterations 3
DILUPBiCGStab:  Solving for O2, Initial residual = 0.00354558, Final residual = 2.31641e-09, No Iterations 3
DILUPBiCGStab:  Solving for H2O, Initial residual = 0.00354605, Final residual = 2.31642e-09, No Iterations 3
DILUPBiCGStab:  Solving for CH4, Initial residual = 0, Final residual = 0, No Iterations 0
DILUPBiCGStab:  Solving for CO2, Initial residual = 0.00354605, Final residual = 2.31642e-09, No Iterations 3
DILUPBiCGStab:  Solving for h, Initial residual = 0.00417974, Final residual = 2.51927e-09, No Iterations 3
min/max(T) = 299.363, 1044.97
GAMGPCG:  Solving for p_rgh, Initial residual = 0.0182694, Final residual = 1.03043e-07, No Iterations 5
diagonal:  Solving for rho, Initial residual = 0, Final residual = 0, No Iterations 0
time step continuity errors : sum local = 5.58124e-09, global = 5.9818e-11, cumulative = -1.79783e-07
GAMGPCG:  Solving for p_rgh, Initial residual = 0.00268525, Final residual = 3.25948e-07, No Iterations 4
diagonal:  Solving for rho, Initial residual = 0, Final residual = 0, No Iterations 0
time step continuity errors : sum local = 1.67319e-08, global = 1.9818e-09, cumulative = -1.77801e-07
DILUPBiCGStab:  Solving for omega, Initial residual = 0.00012257, Final residual = 1.81542e-09, No Iterations 2
DILUPBiCGStab:  Solving for k, Initial residual = 0.00779305, Final residual = 3.41789e-09, No Iterations 3

ExecutionTime = 5.55 s  ClockTime = 6 s

    Overall     = 0.00135533, 0.01
Time = 292

diagonal:  Solving for rho, Initial residual = 0, Final residual = 0, No Iterations 0

Execution time for mesh.update() = 0 s

DILUPBiCGStab:  Solving for Ux, Initial residual = 0.00586236, Final residual = 3.99344e-09, No Iterations 3
DILUPBiCGStab:  Solving for Uy, Initial residual = 0.00770772, Final residual = 5.11159e-09, No Iterations 3
DILUPBiCGStab:  Solving for O2, Initial residual = 0.00353942, Final residual = 2.62069e-09, No Iterations 3
DILUPBiCGStab:  Solving for H2O, Initial residual = 0.00353993, Final residual = 2.62076e-09, No Iterations 3
DILUPBiCGStab:  Solving for CH4, Initial residual = 0, Final residual = 0, No Iterations 0
DILUPBiCGStab:  Solving for CO2, Initial residual = 0.00353993, Final residual = 2.62076e-09, No Iterations 3
DILUPBiCGStab:  Solving for h, Initial residual = 0.00416803, Final residual = 2.64811e-09, No Iterations 3
min/max(T) = 299.381, 1044.97
GAMGPCG:  Solving for p_rgh, Initial residual = 0.0183419, Final residual = 1.16865e-07, No Iterations 5
diagonal:  Solving for rho, Initial residual = 0, Final residual = 0, No Iterations 0
time step continuity errors : sum local = 6.34373e-09, global = -1.64917e-10, cumulative = -1.77966e-07
GAMGPCG:  Solving for p_rgh, Initial residual = 0.00263012, Final residual = 3.17423e-07, No Iterations 4
diagonal:  Solving for rho, Initial residual = 0, Final residual = 0, No Iterations 0
time step continuity errors : sum local = 1.6253e-08, global = 1.64523e-09, cumulative = -1.76321e-07
DILUPBiCGStab:  Solving for omega, Initial residual = 0.000122781, Final residual = 1.8585e-09, No Iterations 2
[...]

Execution time for mesh.update() = 0 s

DILUPBiCGStab:  Solving for Ux, Initial residual = 0.00467029, Final residual = 6.74315e-09, No Iterations 3
DILUPBiCGStab:  Solving for Uy, Initial residual = 0.00421884, Final residual = 4.93201e-09, No Iterations 3
GAMGPCG:  Solving for G, Initial residual = 0.217691, Final residual = 8.40181e-05, No Iterations 6
DILUPBiCGStab:  Solving for O2, Initial residual = 0.00159999, Final residual = 1.65633e-09, No Iterations 3
DILUPBiCGStab:  Solving for H2O, Initial residual = 0.00159999, Final residual = 1.65633e-09, No Iterations 3
DILUPBiCGStab:  Solving for CH4, Initial residual = 0, Final residual = 0, No Iterations 0
DILUPBiCGStab:  Solving for CO2, Initial residual = 0.00159999, Final residual = 1.65633e-09, No Iterations 3
DILUPBiCGStab:  Solving for h, Initial residual = 0.0018529, Final residual = 1.74696e-09, No Iterations 3
min/max(T) = 300, 1044.97
GAMGPCG:  Solving for p_rgh, Initial residual = 0.0198103, Final residual = 1.5273e-07, No Iterations 5
diagonal:  Solving for rho, Initial residual = 0, Final residual = 0, No Iterations 0
time step continuity errors : sum local = 5.71944e-09, global = -1.13069e-09, cumulative = 1.20321e-06
GAMGPCG:  Solving for p_rgh, Initial residual = 0.00348537, Final residual = 3.82507e-07, No Iterations 4
diagonal:  Solving for rho, Initial residual = 0, Final residual = 0, No Iterations 0
time step continuity errors : sum local = 1.43924e-08, global = 7.53777e-10, cumulative = 1.20396e-06
DILUPBiCGStab:  Solving for omega, Initial residual = 8.27891e-05, Final residual = 1.42239e-09, No Iterations 2
DILUPBiCGStab:  Solving for k, Initial residual = 0.00331755, Final residual = 2.14869e-09, No Iterations 3

ExecutionTime = 292.08 s  ClockTime = 292 s

    Overall     = 0.00120957, 0.01
Time = 2491

diagonal:  Solving for rho, Initial residual = 0, Final residual = 0, No Iterations 0

Execution time for mesh.update() = 0 s

DILUPBiCGStab:  Solving for Ux, Initial residual = 0.00464931, Final residual = 7.86004e-09, No Iterations 3
DILUPBiCGStab:  Solving for Uy, Initial residual = 0.00419947, Final residual = 4.83829e-09, No Iterations 3
DILUPBiCGStab:  Solving for O2, Initial residual = 0.00159932, Final residual = 1.62078e-09, No Iterations 3
DILUPBiCGStab:  Solving for H2O, Initial residual = 0.00159932, Final residual = 1.62078e-09, No Iterations 3
DILUPBiCGStab:  Solving for CH4, Initial residual = 0, Final residual = 0, No Iterations 0
DILUPBiCGStab:  Solving for CO2, Initial residual = 0.00159932, Final residual = 1.62078e-09, No Iterations 3
DILUPBiCGStab:  Solving for h, Initial residual = 0.00185028, Final residual = 1.68056e-09, No Iterations 3
min/max(T) = 300, 1044.97
GAMGPCG:  Solving for p_rgh, Initial residual = 0.0193344, Final residual = 1.68995e-07, No Iterations 5
diagonal:  Solving for rho, Initial residual = 0, Final residual = 0, No Iterations 0
time step continuity errors : sum local = 6.43538e-09, global = -1.06518e-09, cumulative = 1.2029e-06
GAMGPCG:  Solving for p_rgh, Initial residual = 0.00340873, Final residual = 4.08451e-07, No Iterations 4
diagonal:  Solving for rho, Initial residual = 0, Final residual = 0, No Iterations 0
time step continuity errors : sum local = 1.53449e-08, global = 7.61069e-10, cumulative = 1.20366e-06
DILUPBiCGStab:  Solving for omega, Initial residual = 8.28759e-05, Final residual = 1.41196e-09, No Iterations 2
DILUPBiCGStab:  Solving for k, Initial residual = 0.00332283, Final residual = 2.05553e-09, No Iterations 3

ExecutionTime = 292.2 s  ClockTime = 292 s

    Overall     = 0.00120876, 0.01
Time = 2492

diagonal:  Solving for rho, Initial residual = 0, Final residual = 0, No Iterations 0

Execution time for mesh.update() = 0 s

DILUPBiCGStab:  Solving for Ux, Initial residual = 0.00462405, Final residual = 5.53031e-09, No Iterations 3
DILUPBiCGStab:  Solving for Uy, Initial residual = 0.00418686, Final residual = 4.51729e-09, No Iterations 3
DILUPBiCGStab:  Solving for O2, Initial residual = 0.00160856, Final residual = 1.54261e-09, No Iterations 3
DILUPBiCGStab:  Solving for H2O, Initial residual = 0.00160856, Final residual = 1.54261e-09, No Iterations 3
DILUPBiCGStab:  Solving for CH4, Initial residual = 0, Final residual = 0, No Iterations 0
DILUPBiCGStab:  Solving for CO2, Initial residual = 0.00160856, Final residual = 1.54261e-09, No Iterations 3
DILUPBiCGStab:  Solving for h, Initial residual = 0.0018587, Final residual = 1.65099e-09, No Iterations 3
min/max(T) = 300, 1044.97
GAMGPCG:  Solving for p_rgh, Initial residual = 0.0188055, Final residual = 1.68936e-07, No Iterations 5
diagonal:  Solving for rho, Initial residual = 0, Final residual = 0, No Iterations 0
time step continuity errors : sum local = 6.45862e-09, global = -1.13761e-09, cumulative = 1.20252e-06
GAMGPCG:  Solving for p_rgh, Initial residual = 0.00335947, Final residual = 4.33772e-07, No Iterations 4
diagonal:  Solving for rho, Initial residual = 0, Final residual = 0, No Iterations 0
time step continuity errors : sum local = 1.62544e-08, global = 8.3062e-10, cumulative = 1.20335e-06
DILUPBiCGStab:  Solving for omega, Initial residual = 8.29004e-05, Final residual = 1.45292e-09, No Iterations 2
DILUPBiCGStab:  Solving for k, Initial residual = 0.00332746, Final residual = 1.99525e-09, No Iterations 3

ExecutionTime = 292.31 s  ClockTime = 292 s

    Overall     = 0.00120707, 0.01
Time = 2493

diagonal:  Solving for rho, Initial residual = 0, Final residual = 0, No Iterations 0

Execution time for mesh.update() = 0 s

DILUPBiCGStab:  Solving for Ux, Initial residual = 0.00461582, Final residual = 6.23681e-09, No Iterations 3
DILUPBiCGStab:  Solving for Uy, Initial residual = 0.00416754, Final residual = 4.4844e-09, No Iterations 3
DILUPBiCGStab:  Solving for O2, Initial residual = 0.00160839, Final residual = 1.53127e-09, No Iterations 3
DILUPBiCGStab:  Solving for H2O, Initial residual = 0.00160838, Final residual = 1.53127e-09, No Iterations 3
DILUPBiCGStab:  Solving for CH4, Initial residual = 0, Final residual = 0, No Iterations 0
DILUPBiCGStab:  Solving for CO2, Initial residual = 0.00160838, Final residual = 1.53127e-09, No Iterations 3
DILUPBiCGStab:  Solving for h, Initial residual = 0.00186174, Final residual = 1.68541e-09, No Iterations 3
min/max(T) = 300, 1044.97
GAMGPCG:  Solving for p_rgh, Initial residual = 0.0184543, Final residual = 1.78914e-07, No Iterations 5
diagonal:  Solving for rho, Initial residual = 0, Final residual = 0, No Iterations 0
time step continuity errors : sum local = 6.7854e-09, global = -9.88979e-10, cumulative = 1.20236e-06
GAMGPCG:  Solving for p_rgh, Initial residual = 0.00332129, Final residual = 4.77037e-07, No Iterations 4
diagonal:  Solving for rho, Initial residual = 0, Final residual = 0, No Iterations 0
time step continuity errors : sum local = 1.77736e-08, global = 8.25991e-10, cumulative = 1.20319e-06
DILUPBiCGStab:  Solving for omega, Initial residual = 8.30133e-05, Final residual = 1.36453e-09, No Iterations 2
DILUPBiCGStab:  Solving for k, Initial residual = 0.00333022, Final residual = 1.96359e-09, No Iterations 3

ExecutionTime = 292.43 s  ClockTime = 292 s

    Overall     = 0.00120771, 0.01
Time = 2494

diagonal:  Solving for rho, Initial residual = 0, Final residual = 0, No Iterations 0

Execution time for mesh.update() = 0 s

DILUPBiCGStab:  Solving for Ux, Initial residual = 0.00461172, Final residual = 5.45759e-09, No Iterations 3
DILUPBiCGStab:  Solving for Uy, Initial residual = 0.00414345, Final residual = 4.23983e-09, No Iterations 3
DILUPBiCGStab:  Solving for O2, Initial residual = 0.0016183, Final residual = 1.54845e-09, No Iterations 3
DILUPBiCGStab:  Solving for H2O, Initial residual = 0.0016183, Final residual = 1.54845e-09, No Iterations 3
DILUPBiCGStab:  Solving for CH4, Initial residual = 0, Final residual = 0, No Iterations 0
DILUPBiCGStab:  Solving for CO2, Initial residual = 0.0016183, Final residual = 1.54845e-09, No Iterations 3
DILUPBiCGStab:  Solving for h, Initial residual = 0.0018712, Final residual = 1.75433e-09, No Iterations 3
min/max(T) = 300, 1044.97
GAMGPCG:  Solving for p_rgh, Initial residual = 0.0184472, Final residual = 1.76528e-07, No Iterations 5
diagonal:  Solving for rho, Initial residual = 0, Final residual = 0, No Iterations 0
time step continuity errors : sum local = 6.71992e-09, global = -9.70606e-10, cumulative = 1.20222e-06
GAMGPCG:  Solving for p_rgh, Initial residual = 0.00330075, Final residual = 4.99654e-07, No Iterations 4
diagonal:  Solving for rho, Initial residual = 0, Final residual = 0, No Iterations 0
time step continuity errors : sum local = 1.86739e-08, global = 9.31884e-10, cumulative = 1.20315e-06
DILUPBiCGStab:  Solving for omega, Initial residual = 8.37903e-05, Final residual = 1.38761e-09, No Iterations 2
DILUPBiCGStab:  Solving for k, Initial residual = 0.00333184, Final residual = 2.03822e-09, No Iterations 3

ExecutionTime = 292.55 s  ClockTime = 293 s

    Overall     = 0.00120851, 0.01
Time = 2495

diagonal:  Solving for rho, Initial residual = 0, Final residual = 0, No Iterations 0

Execution time for mesh.update() = 0 s

DILUPBiCGStab:  Solving for Ux, Initial residual = 0.00461154, Final residual = 5.54214e-09, No Iterations 3
DILUPBiCGStab:  Solving for Uy, Initial residual = 0.00413751, Final residual = 4.19366e-09, No Iterations 3
DILUPBiCGStab:  Solving for O2, Initial residual = 0.0016265, Final residual = 1.60645e-09, No Iterations 3
DILUPBiCGStab:  Solving for H2O, Initial residual = 0.0016265, Final residual = 1.60645e-09, No Iterations 3
DILUPBiCGStab:  Solving for CH4, Initial residual = 0, Final residual = 0, No Iterations 0
DILUPBiCGStab:  Solving for CO2, Initial residual = 0.0016265, Final residual = 1.60645e-09, No Iterations 3
DILUPBiCGStab:  Solving for h, Initial residual = 0.00188179, Final residual = 1.81902e-09, No Iterations 3
min/max(T) = 300, 1044.97
GAMGPCG:  Solving for p_rgh, Initial residual = 0.0181426, Final residual = 1.98037e-07, No Iterations 5
diagonal:  Solving for rho, Initial residual = 0, Final residual = 0, No Iterations 0
time step continuity errors : sum local = 7.47092e-09, global = -7.94213e-10, cumulative = 1.20235e-06
GAMGPCG:  Solving for p_rgh, Initial residual = 0.00324657, Final residual = 5.08979e-07, No Iterations 4
diagonal:  Solving for rho, Initial residual = 0, Final residual = 0, No Iterations 0
time step continuity errors : sum local = 1.90024e-08, global = 8.1089e-10, cumulative = 1.20317e-06
DILUPBiCGStab:  Solving for omega, Initial residual = 8.3388e-05, Final residual = 1.35733e-09, No Iterations 2
DILUPBiCGStab:  Solving for k, Initial residual = 0.00333145, Final residual = 2.00811e-09, No Iterations 3

ExecutionTime = 292.67 s  ClockTime = 293 s

    Overall     = 0.0012113, 0.01
Time = 2496

diagonal:  Solving for rho, Initial residual = 0, Final residual = 0, No Iterations 0

Execution time for mesh.update() = 0 s

DILUPBiCGStab:  Solving for Ux, Initial residual = 0.00460608, Final residual = 5.6587e-09, No Iterations 3
DILUPBiCGStab:  Solving for Uy, Initial residual = 0.0041229, Final residual = 4.26311e-09, No Iterations 3
DILUPBiCGStab:  Solving for O2, Initial residual = 0.00163958, Final residual = 1.69845e-09, No Iterations 3
DILUPBiCGStab:  Solving for H2O, Initial residual = 0.00163958, Final residual = 1.69845e-09, No Iterations 3
DILUPBiCGStab:  Solving for CH4, Initial residual = 0, Final residual = 0, No Iterations 0
DILUPBiCGStab:  Solving for CO2, Initial residual = 0.00163958, Final residual = 1.69845e-09, No Iterations 3
DILUPBiCGStab:  Solving for h, Initial residual = 0.00189733, Final residual = 1.91386e-09, No Iterations 3
min/max(T) = 299.978, 1044.97
GAMGPCG:  Solving for p_rgh, Initial residual = 0.0183146, Final residual = 1.98341e-07, No Iterations 5
diagonal:  Solving for rho, Initial residual = 0, Final residual = 0, No Iterations 0
time step continuity errors : sum local = 7.49332e-09, global = -7.53253e-10, cumulative = 1.20241e-06
GAMGPCG:  Solving for p_rgh, Initial residual = 0.00317385, Final residual = 5.09795e-07, No Iterations 4
diagonal:  Solving for rho, Initial residual = 0, Final residual = 0, No Iterations 0
time step continuity errors : sum local = 1.91653e-08, global = 6.78197e-10, cumulative = 1.20309e-06
DILUPBiCGStab:  Solving for omega, Initial residual = 8.47393e-05, Final residual = 1.39589e-09, No Iterations 2
DILUPBiCGStab:  Solving for k, Initial residual = 0.00333398, Final residual = 1.96053e-09, No Iterations 3

ExecutionTime = 292.79 s  ClockTime = 293 s

    Overall     = 0.00121329, 0.01
Time = 2497

diagonal:  Solving for rho, Initial residual = 0, Final residual = 0, No Iterations 0

Execution time for mesh.update() = 0 s

DILUPBiCGStab:  Solving for Ux, Initial residual = 0.0046091, Final residual = 5.44532e-09, No Iterations 3
DILUPBiCGStab:  Solving for Uy, Initial residual = 0.00413446, Final residual = 4.16563e-09, No Iterations 3
DILUPBiCGStab:  Solving for O2, Initial residual = 0.00165286, Final residual = 1.73704e-09, No Iterations 3
DILUPBiCGStab:  Solving for H2O, Initial residual = 0.00165287, Final residual = 1.73704e-09, No Iterations 3
DILUPBiCGStab:  Solving for CH4, Initial residual = 0, Final residual = 0, No Iterations 0
DILUPBiCGStab:  Solving for CO2, Initial residual = 0.00165287, Final residual = 1.73704e-09, No Iterations 3
DILUPBiCGStab:  Solving for h, Initial residual = 0.00191386, Final residual = 1.96603e-09, No Iterations 3
min/max(T) = 299.957, 1044.97
GAMGPCG:  Solving for p_rgh, Initial residual = 0.0179579, Final residual = 2.09903e-07, No Iterations 5
diagonal:  Solving for rho, Initial residual = 0, Final residual = 0, No Iterations 0
time step continuity errors : sum local = 7.90929e-09, global = -5.68839e-10, cumulative = 1.20252e-06
GAMGPCG:  Solving for p_rgh, Initial residual = 0.00316999, Final residual = 5.0805e-07, No Iterations 4
diagonal:  Solving for rho, Initial residual = 0, Final residual = 0, No Iterations 0
time step continuity errors : sum local = 1.91477e-08, global = 5.54174e-10, cumulative = 1.20308e-06
DILUPBiCGStab:  Solving for omega, Initial residual = 8.49854e-05, Final residual = 1.42667e-09, No Iterations 2
DILUPBiCGStab:  Solving for k, Initial residual = 0.00333535, Final residual = 1.84499e-09, No Iterations 3

ExecutionTime = 292.9 s  ClockTime = 293 s

    Overall     = 0.00121799, 0.01
Time = 2498

diagonal:  Solving for rho, Initial residual = 0, Final residual = 0, No Iterations 0

Execution time for mesh.update() = 0 s

DILUPBiCGStab:  Solving for Ux, Initial residual = 0.00461669, Final residual = 5.69354e-09, No Iterations 3
DILUPBiCGStab:  Solving for Uy, Initial residual = 0.00414719, Final residual = 4.29371e-09, No Iterations 3
DILUPBiCGStab:  Solving for O2, Initial residual = 0.00166571, Final residual = 2.45504e-09, No Iterations 3
DILUPBiCGStab:  Solving for H2O, Initial residual = 0.00166575, Final residual = 2.45503e-09, No Iterations 3
DILUPBiCGStab:  Solving for CH4, Initial residual = 0, Final residual = 0, No Iterations 0
DILUPBiCGStab:  Solving for CO2, Initial residual = 0.00166575, Final residual = 2.45503e-09, No Iterations 3
DILUPBiCGStab:  Solving for h, Initial residual = 0.00192956, Final residual = 2.96019e-09, No Iterations 3
min/max(T) = 299.944, 1044.97
GAMGPCG:  Solving for p_rgh, Initial residual = 0.017623, Final residual = 2.1219e-07, No Iterations 5
diagonal:  Solving for rho, Initial residual = 0, Final residual = 0, No Iterations 0
time step continuity errors : sum local = 8.06435e-09, global = -7.30147e-10, cumulative = 1.20235e-06
GAMGPCG:  Solving for p_rgh, Initial residual = 0.00314244, Final residual = 4.97591e-07, No Iterations 4
diagonal:  Solving for rho, Initial residual = 0, Final residual = 0, No Iterations 0
time step continuity errors : sum local = 1.8846e-08, global = 5.66724e-10, cumulative = 1.20291e-06
DILUPBiCGStab:  Solving for omega, Initial residual = 8.57317e-05, Final residual = 1.43229e-09, No Iterations 2
DILUPBiCGStab:  Solving for k, Initial residual = 0.00333275, Final residual = 1.86814e-09, No Iterations 3

ExecutionTime = 293.02 s  ClockTime = 293 s

    Overall     = 0.00122105, 0.01
Time = 2499

diagonal:  Solving for rho, Initial residual = 0, Final residual = 0, No Iterations 0

Execution time for mesh.update() = 0 s

DILUPBiCGStab:  Solving for Ux, Initial residual = 0.00461522, Final residual = 5.44817e-09, No Iterations 3
DILUPBiCGStab:  Solving for Uy, Initial residual = 0.00416135, Final residual = 4.19394e-09, No Iterations 3
DILUPBiCGStab:  Solving for O2, Initial residual = 0.00168145, Final residual = 2.56805e-09, No Iterations 3
DILUPBiCGStab:  Solving for H2O, Initial residual = 0.00168149, Final residual = 2.56803e-09, No Iterations 3
DILUPBiCGStab:  Solving for CH4, Initial residual = 0, Final residual = 0, No Iterations 0
DILUPBiCGStab:  Solving for CO2, Initial residual = 0.00168149, Final residual = 2.56803e-09, No Iterations 3
DILUPBiCGStab:  Solving for h, Initial residual = 0.00195212, Final residual = 2.87491e-09, No Iterations 3
min/max(T) = 299.936, 1044.97
GAMGPCG:  Solving for p_rgh, Initial residual = 0.0171092, Final residual = 2.07894e-07, No Iterations 5
diagonal:  Solving for rho, Initial residual = 0, Final residual = 0, No Iterations 0
time step continuity errors : sum local = 7.89267e-09, global = -7.28115e-10, cumulative = 1.20218e-06
GAMGPCG:  Solving for p_rgh, Initial residual = 0.00307207, Final residual = 4.65198e-07, No Iterations 4
diagonal:  Solving for rho, Initial residual = 0, Final residual = 0, No Iterations 0
time step continuity errors : sum local = 1.76171e-08, global = 6.00373e-10, cumulative = 1.20278e-06
DILUPBiCGStab:  Solving for omega, Initial residual = 8.57845e-05, Final residual = 1.36353e-09, No Iterations 2
DILUPBiCGStab:  Solving for k, Initial residual = 0.00333764, Final residual = 1.7904e-09, No Iterations 3

ExecutionTime = 293.14 s  ClockTime = 293 s

    Overall     = 0.00122684, 0.01
Time = 2500

diagonal:  Solving for rho, Initial residual = 0, Final residual = 0, No Iterations 0

Execution time for mesh.update() = 0 s

DILUPBiCGStab:  Solving for Ux, Initial residual = 0.00461639, Final residual = 5.75095e-09, No Iterations 3
DILUPBiCGStab:  Solving for Uy, Initial residual = 0.00417551, Final residual = 4.59999e-09, No Iterations 3
GAMGPCG:  Solving for G, Initial residual = 0.186592, Final residual = 4.9511e-05, No Iterations 6
DILUPBiCGStab:  Solving for O2, Initial residual = 0.00169521, Final residual = 2.10791e-09, No Iterations 3
DILUPBiCGStab:  Solving for H2O, Initial residual = 0.00169526, Final residual = 2.1079e-09, No Iterations 3
DILUPBiCGStab:  Solving for CH4, Initial residual = 0, Final residual = 0, No Iterations 0
DILUPBiCGStab:  Solving for CO2, Initial residual = 0.00169526, Final residual = 2.1079e-09, No Iterations 3
DILUPBiCGStab:  Solving for h, Initial residual = 0.00196606, Final residual = 2.30476e-09, No Iterations 3
min/max(T) = 299.931, 1044.97
GAMGPCG:  Solving for p_rgh, Initial residual = 0.0173291, Final residual = 1.93157e-07, No Iterations 5
diagonal:  Solving for rho, Initial residual = 0, Final residual = 0, No Iterations 0
time step continuity errors : sum local = 7.39933e-09, global = -1.13149e-09, cumulative = 1.20165e-06
GAMGPCG:  Solving for p_rgh, Initial residual = 0.00307352, Final residual = 4.34059e-07, No Iterations 4
diagonal:  Solving for rho, Initial residual = 0, Final residual = 0, No Iterations 0
time step continuity errors : sum local = 1.64413e-08, global = 6.57893e-10, cumulative = 1.20231e-06
DILUPBiCGStab:  Solving for omega, Initial residual = 8.65771e-05, Final residual = 1.29948e-09, No Iterations 2
DILUPBiCGStab:  Solving for k, Initial residual = 0.00333907, Final residual = 1.89701e-09, No Iterations 3

ExecutionTime = 293.39 s  ClockTime = 293 s


Patch Mean : 303.128
Patch Variance : 0.0406156
Patch Gradient : 0.219237
End
