/*---------------------------------------------------------------------------*\
  =========                 |
  \\      /  F ield         | OpenFOAM: The Open Source CFD Toolbox
   \\    /   O peration     | Website:  https://openfoam.org
    \\  /    A nd           | Version:  dev
     \\/     M anipulation  |
\*---------------------------------------------------------------------------*/
Build  : dev-cabe48fb62c1
Exec   : fireDyMFoam
Date   : Apr 15 2019
Time   : 13:57:01
Host   : "Host"
PID    : 6875
I/O    : uncollated
Case   : /home/tesla/OpenFOAM/tesla-dev/run/rollerOpt_COBYLA_NEW
nProcs : 1
sigFpe : Enabling floating point exception trapping (FOAM_SIGFPE).
fileModificationChecking : Monitoring run-time modified files using timeStampMaster (fileModificationSkew 10)
allowSystemOperations : Allowing user-supplied system call operations

// * * * * * * * * * * * * * * * * * * * * * * * * * * * * * * * * * * * * * //
Create time

--> FOAM Warning : 
    From function void* Foam::dlOpen(const Foam::fileName&, bool)
    in file POSIX.C at line 1268
    dlopen error : libgroovyBC.so: cannot open shared object file: No such file or directory
--> FOAM Warning : 
    From function bool Foam::dlLibraryTable::open(const Foam::fileName&, bool)
    in file db/dynamicLibrary/dlLibraryTable/dlLibraryTable.C at line 105
    could not load "libgroovyBC.so"
Create mesh for time = 250

Selecting dynamicFvMesh dynamicRefineFvMesh
Detected 538 cells that are protected from refinement. Writing these to cellSet protectedCells.

PIMPLE: No convergence criteria found


PIMPLE: Operating solver in PISO mode


Initializing Solver

Selecting thermodynamics package 
{
    type            hePsiThermo;
    mixture         reactingMixture;
    transport       sutherland;
    thermo          janaf;
    energy          sensibleEnthalpy;
    equationOfState perfectGas;
    specie          specie;
}

Selecting chemistryReader foamChemistryReader
    elements not defined in "/home/tesla/OpenFOAM/tesla-dev/run/rollerOpt_COBYLA_NEW/constant/reactions"
Reading/calculating face flux field phi

No MRF models present

Selecting turbulence model type RAS
Selecting RAS turbulence model kOmegaSST
Selecting patchDistMethod meshWave
kOmegaSSTCoeffs
{
    delta           cubeRootVol;
    cubeRootVolCoeffs
    {
        deltaCoeff      1;
    }
    alphaK1         0.85;
    alphaK2         1;
    alphaOmega1     0.5;
    alphaOmega2     0.856;
    gamma1          0.555556;
    gamma2          0.44;
    beta1           0.075;
    beta2           0.0828;
    betaStar        0.09;
    a1              0.31;
    b1              1;
    c1              10;
    F3              false;
}

Selecting combustion model none<psiThermoCombustion>
--> FOAM Warning : 
    From function static Foam::autoPtr<T> Foam::combustionModel::New(typename CombustionModel::reactionThermo&, const Foam::compressibleTurbulenceModel&, const Foam::word&) [with CombustionModel = Foam::CombustionModel<Foam::psiReactionThermo>; typename CombustionModel::reactionThermo = Foam::psiReactionThermo]
    in file /home/tesla/OpenFOAM/OpenFOAM-dev/src/combustionModels/lnInclude/combustionModelTemplates.C at line 69
    Template parameters are no longer required when selecting a combustionModel. This information is now obtained directly from the thermodynamics. Actually selecting combustion model none.

Reading g

Reading hRef
Calculating field g.h


Reading pRef
Selecting radiationModel P1
Selecting absorptionEmissionModel greyMeanAbsorptionEmission
Selecting scatterModel none
Selecting sootModel none
Creating finite volume options from "system/fvOptions"

No finite volume options present
Using LTS

Starting time loop

Using dynamicCode for functionObject patchCalcs at line 64 in "/home/tesla/OpenFOAM/tesla-dev/run/rollerOpt_COBYLA_NEW/system/controlDict.functions.patchCalcs"
    Overall     = 0.00173677, 0.01
Time = 251

diagonal:  Solving for rho, Initial residual = 0, Final residual = 0, No Iterations 0

Execution time for mesh.update() = 0 s

DILUPBiCGStab:  Solving for Ux, Initial residual = 0.00572457, Final residual = 9.98234e-10, No Iterations 3
DILUPBiCGStab:  Solving for Uy, Initial residual = 0.00891117, Final residual = 1.34999e-09, No Iterations 3
GAMGPCG:  Solving for G, Initial residual = 0.0302641, Final residual = 3.43217e-05, No Iterations 4
DILUPBiCGStab:  Solving for O2, Initial residual = 0.00308705, Final residual = 3.44211e-09, No Iterations 3
DILUPBiCGStab:  Solving for H2O, Initial residual = 0.00308701, Final residual = 3.44206e-09, No Iterations 3
DILUPBiCGStab:  Solving for CH4, Initial residual = 0, Final residual = 0, No Iterations 0
DILUPBiCGStab:  Solving for CO2, Initial residual = 0.00308702, Final residual = 3.44204e-09, No Iterations 3
DILUPBiCGStab:  Solving for h, Initial residual = 0.00341009, Final residual = 3.49666e-09, No Iterations 3
min/max(T) = 299.668, 1044.97
GAMGPCG:  Solving for p_rgh, Initial residual = 0.0197422, Final residual = 6.16884e-07, No Iterations 4
diagonal:  Solving for rho, Initial residual = 0, Final residual = 0, No Iterations 0
time step continuity errors : sum local = 2.47061e-06, global = -1.21514e-07, cumulative = -1.21514e-07
GAMGPCG:  Solving for p_rgh, Initial residual = 0.00290689, Final residual = 2.05222e-07, No Iterations 4
diagonal:  Solving for rho, Initial residual = 0, Final residual = 0, No Iterations 0
time step continuity errors : sum local = 2.46342e-06, global = -1.21278e-07, cumulative = -2.42793e-07
DILUPBiCGStab:  Solving for omega, Initial residual = 0.00014062, Final residual = 3.04582e-09, No Iterations 2
DILUPBiCGStab:  Solving for k, Initial residual = 0.00584329, Final residual = 4.19279e-09, No Iterations 3

ExecutionTime = 0.38 s  ClockTime = 0 s

    Overall     = 0.00174483, 0.01
Time = 252

diagonal:  Solving for rho, Initial residual = 0, Final residual = 0, No Iterations 0

Execution time for mesh.update() = 0 s

DILUPBiCGStab:  Solving for Ux, Initial residual = 0.00571076, Final residual = 8.81261e-10, No Iterations 3
DILUPBiCGStab:  Solving for Uy, Initial residual = 0.00885814, Final residual = 1.37285e-09, No Iterations 3
DILUPBiCGStab:  Solving for O2, Initial residual = 0.0030908, Final residual = 3.41073e-09, No Iterations 3
DILUPBiCGStab:  Solving for H2O, Initial residual = 0.00309104, Final residual = 3.41069e-09, No Iterations 3
DILUPBiCGStab:  Solving for CH4, Initial residual = 0, Final residual = 0, No Iterations 0
DILUPBiCGStab:  Solving for CO2, Initial residual = 0.00309105, Final residual = 3.4107e-09, No Iterations 3
DILUPBiCGStab:  Solving for h, Initial residual = 0.00341771, Final residual = 3.58545e-09, No Iterations 3
min/max(T) = 299.662, 1044.97
GAMGPCG:  Solving for p_rgh, Initial residual = 0.0195815, Final residual = 6.16354e-07, No Iterations 4
diagonal:  Solving for rho, Initial residual = 0, Final residual = 0, No Iterations 0
time step continuity errors : sum local = 3.44767e-08, global = 7.7208e-10, cumulative = -2.42021e-07
GAMGPCG:  Solving for p_rgh, Initial residual = 0.00282066, Final residual = 1.9125e-07, No Iterations 4
diagonal:  Solving for rho, Initial residual = 0, Final residual = 0, No Iterations 0
time step continuity errors : sum local = 1.01758e-08, global = 1.30951e-09, cumulative = -2.40711e-07
DILUPBiCGStab:  Solving for omega, Initial residual = 0.000140363, Final residual = 3.09007e-09, No Iterations 2
DILUPBiCGStab:  Solving for k, Initial residual = 0.00584724, Final residual = 4.32625e-09, No Iterations 3

ExecutionTime = 0.49 s  ClockTime = 0 s

    Overall     = 0.00173424, 0.01
Time = 253

diagonal:  Solving for rho, Initial residual = 0, Final residual = 0, No Iterations 0

Execution time for mesh.update() = 0.01 s

DILUPBiCGStab:  Solving for Ux, Initial residual = 0.00569425, Final residual = 8.74145e-10, No Iterations 3
DILUPBiCGStab:  Solving for Uy, Initial residual = 0.00887014, Final residual = 1.37094e-09, No Iterations 3
DILUPBiCGStab:  Solving for O2, Initial residual = 0.00308941, Final residual = 3.19154e-09, No Iterations 3
DILUPBiCGStab:  Solving for H2O, Initial residual = 0.00308939, Final residual = 3.19146e-09, No Iterations 3
DILUPBiCGStab:  Solving for CH4, Initial residual = 0, Final residual = 0, No Iterations 0
DILUPBiCGStab:  Solving for CO2, Initial residual = 0.00308939, Final residual = 3.19147e-09, No Iterations 3
DILUPBiCGStab:  Solving for h, Initial residual = 0.00341648, Final residual = 3.37537e-09, No Iterations 3
min/max(T) = 299.663, 1044.97
GAMGPCG:  Solving for p_rgh, Initial residual = 0.0196042, Final residual = 6.46295e-07, No Iterations 4
diagonal:  Solving for rho, Initial residual = 0, Final residual = 0, No Iterations 0
time step continuity errors : sum local = 3.68336e-08, global = -3.01737e-09, cumulative = -2.43728e-07
GAMGPCG:  Solving for p_rgh, Initial residual = 0.00285376, Final residual = 1.86988e-07, No Iterations 4
diagonal:  Solving for rho, Initial residual = 0, Final residual = 0, No Iterations 0
time step continuity errors : sum local = 9.96407e-09, global = 1.37221e-09, cumulative = -2.42356e-07
DILUPBiCGStab:  Solving for omega, Initial residual = 0.000140823, Final residual = 3.15318e-09, No Iterations 2
DILUPBiCGStab:  Solving for k, Initial residual = 0.00585075, Final residual = 5.33409e-09, No Iterations 3

ExecutionTime = 0.61 s  ClockTime = 1 s

    Overall     = 0.00174125, 0.01
Time = 254

diagonal:  Solving for rho, Initial residual = 0, Final residual = 0, No Iterations 0

Execution time for mesh.update() = 0 s

DILUPBiCGStab:  Solving for Ux, Initial residual = 0.00567031, Final residual = 9.25997e-09, No Iterations 3
DILUPBiCGStab:  Solving for Uy, Initial residual = 0.00884764, Final residual = 1.47512e-09, No Iterations 3
DILUPBiCGStab:  Solving for O2, Initial residual = 0.00309105, Final residual = 3.14136e-09, No Iterations 3
DILUPBiCGStab:  Solving for H2O, Initial residual = 0.00309129, Final residual = 3.14131e-09, No Iterations 3
DILUPBiCGStab:  Solving for CH4, Initial residual = 0, Final residual = 0, No Iterations 0
DILUPBiCGStab:  Solving for CO2, Initial residual = 0.0030913, Final residual = 3.14132e-09, No Iterations 3
DILUPBiCGStab:  Solving for h, Initial residual = 0.00342313, Final residual = 3.38581e-09, No Iterations 3
min/max(T) = 299.662, 1044.97
GAMGPCG:  Solving for p_rgh, Initial residual = 0.0199089, Final residual = 9.23948e-07, No Iterations 4
diagonal:  Solving for rho, Initial residual = 0, Final residual = 0, No Iterations 0
time step continuity errors : sum local = 5.29229e-08, global = 7.87698e-10, cumulative = -2.41568e-07
GAMGPCG:  Solving for p_rgh, Initial residual = 0.00283409, Final residual = 1.7146e-07, No Iterations 4
diagonal:  Solving for rho, Initial residual = 0, Final residual = 0, No Iterations 0
time step continuity errors : sum local = 9.07422e-09, global = 1.27324e-09, cumulative = -2.40295e-07
DILUPBiCGStab:  Solving for omega, Initial residual = 0.000140628, Final residual = 3.22508e-09, No Iterations 2
DILUPBiCGStab:  Solving for k, Initial residual = 0.005856, Final residual = 5.5086e-09, No Iterations 3

ExecutionTime = 0.73 s  ClockTime = 1 s

    Overall     = 0.00172931, 0.01
Time = 255

diagonal:  Solving for rho, Initial residual = 0, Final residual = 0, No Iterations 0

Execution time for mesh.update() = 0 s

DILUPBiCGStab:  Solving for Ux, Initial residual = 0.00566459, Final residual = 7.99716e-09, No Iterations 3
DILUPBiCGStab:  Solving for Uy, Initial residual = 0.00885778, Final residual = 1.47591e-09, No Iterations 3
DILUPBiCGStab:  Solving for O2, Initial residual = 0.00308816, Final residual = 3.46657e-09, No Iterations 3
DILUPBiCGStab:  Solving for H2O, Initial residual = 0.00308814, Final residual = 3.46655e-09, No Iterations 3
DILUPBiCGStab:  Solving for CH4, Initial residual = 0, Final residual = 0, No Iterations 0
DILUPBiCGStab:  Solving for CO2, Initial residual = 0.00308814, Final residual = 3.46655e-09, No Iterations 3
DILUPBiCGStab:  Solving for h, Initial residual = 0.00342126, Final residual = 3.79523e-09, No Iterations 3
min/max(T) = 299.664, 1044.97
GAMGPCG:  Solving for p_rgh, Initial residual = 0.0198855, Final residual = 6.18936e-07, No Iterations 4
diagonal:  Solving for rho, Initial residual = 0, Final residual = 0, No Iterations 0
time step continuity errors : sum local = 3.5071e-08, global = -2.90009e-09, cumulative = -2.43195e-07
GAMGPCG:  Solving for p_rgh, Initial residual = 0.0028498, Final residual = 1.98939e-07, No Iterations 4
diagonal:  Solving for rho, Initial residual = 0, Final residual = 0, No Iterations 0
time step continuity errors : sum local = 1.04818e-08, global = 1.67053e-09, cumulative = -2.41525e-07
DILUPBiCGStab:  Solving for omega, Initial residual = 0.000141103, Final residual = 3.43099e-09, No Iterations 2
DILUPBiCGStab:  Solving for k, Initial residual = 0.0058548, Final residual = 5.82241e-09, No Iterations 3

ExecutionTime = 0.84 s  ClockTime = 1 s

    Overall     = 0.00173528, 0.01
Time = 256

diagonal:  Solving for rho, Initial residual = 0, Final residual = 0, No Iterations 0

Execution time for mesh.update() = 0 s

DILUPBiCGStab:  Solving for Ux, Initial residual = 0.00565188, Final residual = 7.58939e-09, No Iterations 3
DILUPBiCGStab:  Solving for Uy, Initial residual = 0.00889046, Final residual = 1.42312e-09, No Iterations 3
DILUPBiCGStab:  Solving for O2, Initial residual = 0.00309333, Final residual = 3.44567e-09, No Iterations 3
DILUPBiCGStab:  Solving for H2O, Initial residual = 0.00309358, Final residual = 3.44568e-09, No Iterations 3
DILUPBiCGStab:  Solving for CH4, Initial residual = 0, Final residual = 0, No Iterations 0
DILUPBiCGStab:  Solving for CO2, Initial residual = 0.00309358, Final residual = 3.44568e-09, No Iterations 3
DILUPBiCGStab:  Solving for h, Initial residual = 0.00342922, Final residual = 3.88264e-09, No Iterations 3
min/max(T) = 299.664, 1044.97
GAMGPCG:  Solving for p_rgh, Initial residual = 0.0198255, Final residual = 6.86641e-07, No Iterations 4
diagonal:  Solving for rho, Initial residual = 0, Final residual = 0, No Iterations 0
time step continuity errors : sum local = 3.95539e-08, global = 3.08816e-09, cumulative = -2.38437e-07
GAMGPCG:  Solving for p_rgh, Initial residual = 0.00282943, Final residual = 1.8038e-07, No Iterations 4
diagonal:  Solving for rho, Initial residual = 0, Final residual = 0, No Iterations 0
time step continuity errors : sum local = 9.45042e-09, global = 1.63298e-09, cumulative = -2.36804e-07
DILUPBiCGStab:  Solving for omega, Initial residual = 0.000140575, Final residual = 3.38001e-09, No Iterations 2
DILUPBiCGStab:  Solving for k, Initial residual = 0.00585632, Final residual = 5.66018e-09, No Iterations 3

ExecutionTime = 0.96 s  ClockTime = 1 s

    Overall     = 0.00172209, 0.01
Time = 257

diagonal:  Solving for rho, Initial residual = 0, Final residual = 0, No Iterations 0

Execution time for mesh.update() = 0 s

DILUPBiCGStab:  Solving for Ux, Initial residual = 0.0056344, Final residual = 8.2615e-09, No Iterations 3
DILUPBiCGStab:  Solving for Uy, Initial residual = 0.00889219, Final residual = 1.31855e-09, No Iterations 3
DILUPBiCGStab:  Solving for O2, Initial residual = 0.00309115, Final residual = 3.49582e-09, No Iterations 3
DILUPBiCGStab:  Solving for H2O, Initial residual = 0.00309112, Final residual = 3.49589e-09, No Iterations 3
DILUPBiCGStab:  Solving for CH4, Initial residual = 0, Final residual = 0, No Iterations 0
DILUPBiCGStab:  Solving for CO2, Initial residual = 0.00309112, Final residual = 3.49589e-09, No Iterations 3
DILUPBiCGStab:  Solving for h, Initial residual = 0.00343215, Final residual = 4.06101e-09, No Iterations 3
min/max(T) = 299.665, 1044.97
GAMGPCG:  Solving for p_rgh, Initial residual = 0.0201614, Final residual = 5.1262e-07, No Iterations 4
diagonal:  Solving for rho, Initial residual = 0, Final residual = 0, No Iterations 0
time step continuity errors : sum local = 2.91097e-08, global = 2.78201e-09, cumulative = -2.34022e-07
GAMGPCG:  Solving for p_rgh, Initial residual = 0.00285414, Final residual = 1.84746e-07, No Iterations 4
diagonal:  Solving for rho, Initial residual = 0, Final residual = 0, No Iterations 0
time step continuity errors : sum local = 9.69179e-09, global = 1.7133e-09, cumulative = -2.32308e-07
DILUPBiCGStab:  Solving for omega, Initial residual = 0.000140559, Final residual = 3.42193e-09, No Iterations 2
DILUPBiCGStab:  Solving for k, Initial residual = 0.00585286, Final residual = 6.68399e-09, No Iterations 3

ExecutionTime = 1.07 s  ClockTime = 1 s

    Overall     = 0.00172721, 0.01
Time = 258

diagonal:  Solving for rho, Initial residual = 0, Final residual = 0, No Iterations 0

Execution time for mesh.update() = 0 s

DILUPBiCGStab:  Solving for Ux, Initial residual = 0.00563049, Final residual = 7.94693e-09, No Iterations 3
DILUPBiCGStab:  Solving for Uy, Initial residual = 0.0088889, Final residual = 1.3056e-09, No Iterations 3
DILUPBiCGStab:  Solving for O2, Initial residual = 0.00309922, Final residual = 3.69308e-09, No Iterations 3
DILUPBiCGStab:  Solving for H2O, Initial residual = 0.00309945, Final residual = 3.69311e-09, No Iterations 3
DILUPBiCGStab:  Solving for CH4, Initial residual = 0, Final residual = 0, No Iterations 0
DILUPBiCGStab:  Solving for CO2, Initial residual = 0.00309945, Final residual = 3.69312e-09, No Iterations 3
DILUPBiCGStab:  Solving for h, Initial residual = 0.00344179, Final residual = 4.22882e-09, No Iterations 3
min/max(T) = 299.666, 1044.97
GAMGPCG:  Solving for p_rgh, Initial residual = 0.020373, Final residual = 5.12954e-07, No Iterations 4
diagonal:  Solving for rho, Initial residual = 0, Final residual = 0, No Iterations 0
time step continuity errors : sum local = 2.85745e-08, global = 6.39432e-10, cumulative = -2.31669e-07
GAMGPCG:  Solving for p_rgh, Initial residual = 0.00286832, Final residual = 1.75375e-07, No Iterations 4
diagonal:  Solving for rho, Initial residual = 0, Final residual = 0, No Iterations 0
time step continuity errors : sum local = 9.29918e-09, global = 1.65784e-09, cumulative = -2.30011e-07
DILUPBiCGStab:  Solving for omega, Initial residual = 0.000139627, Final residual = 3.22245e-09, No Iterations 2
DILUPBiCGStab:  Solving for k, Initial residual = 0.005852, Final residual = 8.30452e-10, No Iterations 3

ExecutionTime = 1.19 s  ClockTime = 1 s

    Overall     = 0.00171225, 0.01
Time = 259

diagonal:  Solving for rho, Initial residual = 0, Final residual = 0, No Iterations 0

Execution time for mesh.update() = 0 s

DILUPBiCGStab:  Solving for Ux, Initial residual = 0.00563201, Final residual = 8.52959e-09, No Iterations 3
DILUPBiCGStab:  Solving for Uy, Initial residual = 0.00885974, Final residual = 1.2814e-09, No Iterations 3
DILUPBiCGStab:  Solving for O2, Initial residual = 0.00309911, Final residual = 3.26216e-09, No Iterations 3
DILUPBiCGStab:  Solving for H2O, Initial residual = 0.00309907, Final residual = 3.26225e-09, No Iterations 3
DILUPBiCGStab:  Solving for CH4, Initial residual = 0, Final residual = 0, No Iterations 0
DILUPBiCGStab:  Solving for CO2, Initial residual = 0.00309907, Final residual = 3.26225e-09, No Iterations 3
DILUPBiCGStab:  Solving for h, Initial residual = 0.00344196, Final residual = 3.49745e-09, No Iterations 3
min/max(T) = 299.669, 1044.97
GAMGPCG:  Solving for p_rgh, Initial residual = 0.0202984, Final residual = 4.96099e-07, No Iterations 4
diagonal:  Solving for rho, Initial residual = 0, Final residual = 0, No Iterations 0
time step continuity errors : sum local = 2.84374e-08, global = 2.73129e-09, cumulative = -2.2728e-07
GAMGPCG:  Solving for p_rgh, Initial residual = 0.00293755, Final residual = 1.54063e-07, No Iterations 4
diagonal:  Solving for rho, Initial residual = 0, Final residual = 0, No Iterations 0
time step continuity errors : sum local = 8.18293e-09, global = 1.49609e-09, cumulative = -2.25784e-07
DILUPBiCGStab:  Solving for omega, Initial residual = 0.000139871, Final residual = 3.089e-09, No Iterations 2
DILUPBiCGStab:  Solving for k, Initial residual = 0.00584484, Final residual = 8.78263e-09, No Iterations 3

ExecutionTime = 1.31 s  ClockTime = 1 s

    Overall     = 0.00171615, 0.01
Time = 260

diagonal:  Solving for rho, Initial residual = 0, Final residual = 0, No Iterations 0

Execution time for mesh.update() = 0 s

DILUPBiCGStab:  Solving for Ux, Initial residual = 0.00563811, Final residual = 9.18693e-09, No Iterations 3
DILUPBiCGStab:  Solving for Uy, Initial residual = 0.00889887, Final residual = 1.2608e-09, No Iterations 3
GAMGPCG:  Solving for G, Initial residual = 0.127045, Final residual = 7.56218e-05, No Iterations 5
DILUPBiCGStab:  Solving for O2, Initial residual = 0.0031049, Final residual = 3.638e-09, No Iterations 3
DILUPBiCGStab:  Solving for H2O, Initial residual = 0.00310513, Final residual = 3.63803e-09, No Iterations 3
DILUPBiCGStab:  Solving for CH4, Initial residual = 0, Final residual = 0, No Iterations 0
DILUPBiCGStab:  Solving for CO2, Initial residual = 0.00310513, Final residual = 3.63802e-09, No Iterations 3
DILUPBiCGStab:  Solving for h, Initial residual = 0.00345389, Final residual = 3.93944e-09, No Iterations 3
min/max(T) = 299.671, 1044.97
GAMGPCG:  Solving for p_rgh, Initial residual = 0.0203512, Final residual = 5.27976e-07, No Iterations 4
diagonal:  Solving for rho, Initial residual = 0, Final residual = 0, No Iterations 0
time step continuity errors : sum local = 2.9646e-08, global = 1.3089e-09, cumulative = -2.24475e-07
GAMGPCG:  Solving for p_rgh, Initial residual = 0.00295349, Final residual = 1.6207e-07, No Iterations 4
diagonal:  Solving for rho, Initial residual = 0, Final residual = 0, No Iterations 0
time step continuity errors : sum local = 8.60797e-09, global = 1.65361e-09, cumulative = -2.22821e-07
DILUPBiCGStab:  Solving for omega, Initial residual = 0.000139887, Final residual = 3.07432e-09, No Iterations 2
DILUPBiCGStab:  Solving for k, Initial residual = 0.00583938, Final residual = 6.01112e-09, No Iterations 3

ExecutionTime = 1.56 s  ClockTime = 1 s

    Overall     = 0.00169929, 0.01
Time = 261

diagonal:  Solving for rho, Initial residual = 0, Final residual = 0, No Iterations 0

Execution time for mesh.update() = 0 s

DILUPBiCGStab:  Solving for Ux, Initial residual = 0.00562948, Final residual = 1.03703e-09, No Iterations 3
DILUPBiCGStab:  Solving for Uy, Initial residual = 0.00884838, Final residual = 1.55586e-09, No Iterations 3
DILUPBiCGStab:  Solving for O2, Initial residual = 0.00310219, Final residual = 3.10743e-09, No Iterations 3
DILUPBiCGStab:  Solving for H2O, Initial residual = 0.00310217, Final residual = 3.10751e-09, No Iterations 3
DILUPBiCGStab:  Solving for CH4, Initial residual = 0, Final residual = 0, No Iterations 0
DILUPBiCGStab:  Solving for CO2, Initial residual = 0.00310217, Final residual = 3.10752e-09, No Iterations 3
DILUPBiCGStab:  Solving for h, Initial residual = 0.00345129, Final residual = 3.32678e-09, No Iterations 3
min/max(T) = 299.676, 1044.97
GAMGPCG:  Solving for p_rgh, Initial residual = 0.0204756, Final residual = 5.22518e-07, No Iterations 4
diagonal:  Solving for rho, Initial residual = 0, Final residual = 0, No Iterations 0
time step continuity errors : sum local = 2.97725e-08, global = 1.18139e-10, cumulative = -2.22703e-07
GAMGPCG:  Solving for p_rgh, Initial residual = 0.00296533, Final residual = 1.4511e-07, No Iterations 4
diagonal:  Solving for rho, Initial residual = 0, Final residual = 0, No Iterations 0
time step continuity errors : sum local = 7.73824e-09, global = 1.47172e-09, cumulative = -2.21231e-07
DILUPBiCGStab:  Solving for omega, Initial residual = 0.00013979, Final residual = 3.09651e-09, No Iterations 2
DILUPBiCGStab:  Solving for k, Initial residual = 0.00584581, Final residual = 8.92653e-09, No Iterations 3

ExecutionTime = 1.68 s  ClockTime = 2 s

    Overall     = 0.00170192, 0.01
Time = 262

diagonal:  Solving for rho, Initial residual = 0, Final residual = 0, No Iterations 0

Execution time for mesh.update() = 0 s

DILUPBiCGStab:  Solving for Ux, Initial residual = 0.00563064, Final residual = 1.09195e-09, No Iterations 3
DILUPBiCGStab:  Solving for Uy, Initial residual = 0.00884322, Final residual = 1.33256e-09, No Iterations 3
DILUPBiCGStab:  Solving for O2, Initial residual = 0.00311433, Final residual = 3.18988e-09, No Iterations 3
DILUPBiCGStab:  Solving for H2O, Initial residual = 0.00311444, Final residual = 3.18988e-09, No Iterations 3
DILUPBiCGStab:  Solving for CH4, Initial residual = 0, Final residual = 0, No Iterations 0
DILUPBiCGStab:  Solving for CO2, Initial residual = 0.00311444, Final residual = 3.18988e-09, No Iterations 3
DILUPBiCGStab:  Solving for h, Initial residual = 0.00347034, Final residual = 3.39607e-09, No Iterations 3
min/max(T) = 299.68, 1044.97
GAMGPCG:  Solving for p_rgh, Initial residual = 0.0207406, Final residual = 6.35834e-07, No Iterations 4
diagonal:  Solving for rho, Initial residual = 0, Final residual = 0, No Iterations 0
time step continuity errors : sum local = 3.67056e-08, global = 2.67312e-09, cumulative = -2.18558e-07
GAMGPCG:  Solving for p_rgh, Initial residual = 0.00297067, Final residual = 1.70581e-07, No Iterations 4
diagonal:  Solving for rho, Initial residual = 0, Final residual = 0, No Iterations 0
time step continuity errors : sum local = 9.07898e-09, global = 1.56513e-09, cumulative = -2.16993e-07
DILUPBiCGStab:  Solving for omega, Initial residual = 0.000139022, Final residual = 3.18448e-09, No Iterations 2
DILUPBiCGStab:  Solving for k, Initial residual = 0.00584232, Final residual = 4.28206e-09, No Iterations 3

ExecutionTime = 1.79 s  ClockTime = 2 s

    Overall     = 0.00168338, 0.01
Time = 263

diagonal:  Solving for rho, Initial residual = 0, Final residual = 0, No Iterations 0

Execution time for mesh.update() = 0 s

DILUPBiCGStab:  Solving for Ux, Initial residual = 0.00563388, Final residual = 1.05704e-09, No Iterations 3
DILUPBiCGStab:  Solving for Uy, Initial residual = 0.00883768, Final residual = 1.29782e-09, No Iterations 3
DILUPBiCGStab:  Solving for O2, Initial residual = 0.00311562, Final residual = 3.06747e-09, No Iterations 3
DILUPBiCGStab:  Solving for H2O, Initial residual = 0.00311559, Final residual = 3.06748e-09, No Iterations 3
DILUPBiCGStab:  Solving for CH4, Initial residual = 0, Final residual = 0, No Iterations 0
DILUPBiCGStab:  Solving for CO2, Initial residual = 0.00311559, Final residual = 3.06748e-09, No Iterations 3
DILUPBiCGStab:  Solving for h, Initial residual = 0.00347181, Final residual = 3.32195e-09, No Iterations 3
min/max(T) = 299.685, 1044.97
GAMGPCG:  Solving for p_rgh, Initial residual = 0.0204482, Final residual = 5.05412e-07, No Iterations 4
diagonal:  Solving for rho, Initial residual = 0, Final residual = 0, No Iterations 0
time step continuity errors : sum local = 2.87677e-08, global = -3.0764e-09, cumulative = -2.20069e-07
GAMGPCG:  Solving for p_rgh, Initial residual = 0.00300335, Final residual = 1.773e-07, No Iterations 4
diagonal:  Solving for rho, Initial residual = 0, Final residual = 0, No Iterations 0
time step continuity errors : sum local = 9.43445e-09, global = 1.60822e-09, cumulative = -2.18461e-07
DILUPBiCGStab:  Solving for omega, Initial residual = 0.000139393, Final residual = 3.05214e-09, No Iterations 2
DILUPBiCGStab:  Solving for k, Initial residual = 0.00583046, Final residual = 5.77685e-09, No Iterations 3

ExecutionTime = 1.91 s  ClockTime = 2 s

    Overall     = 0.00168529, 0.01
Time = 264

diagonal:  Solving for rho, Initial residual = 0, Final residual = 0, No Iterations 0

Execution time for mesh.update() = 0 s

DILUPBiCGStab:  Solving for Ux, Initial residual = 0.0056398, Final residual = 1.21946e-09, No Iterations 3
DILUPBiCGStab:  Solving for Uy, Initial residual = 0.00882533, Final residual = 1.49702e-09, No Iterations 3
DILUPBiCGStab:  Solving for O2, Initial residual = 0.00312372, Final residual = 3.18281e-09, No Iterations 3
DILUPBiCGStab:  Solving for H2O, Initial residual = 0.00312383, Final residual = 3.18281e-09, No Iterations 3
DILUPBiCGStab:  Solving for CH4, Initial residual = 0, Final residual = 0, No Iterations 0
DILUPBiCGStab:  Solving for CO2, Initial residual = 0.00312383, Final residual = 3.18281e-09, No Iterations 3
DILUPBiCGStab:  Solving for h, Initial residual = 0.00348422, Final residual = 3.48516e-09, No Iterations 3
min/max(T) = 299.69, 1044.97
GAMGPCG:  Solving for p_rgh, Initial residual = 0.0205928, Final residual = 5.93445e-07, No Iterations 4
diagonal:  Solving for rho, Initial residual = 0, Final residual = 0, No Iterations 0
time step continuity errors : sum local = 3.44784e-08, global = 3.01409e-09, cumulative = -2.15447e-07
GAMGPCG:  Solving for p_rgh, Initial residual = 0.00309695, Final residual = 1.80797e-07, No Iterations 4
diagonal:  Solving for rho, Initial residual = 0, Final residual = 0, No Iterations 0
time step continuity errors : sum local = 9.64539e-09, global = 1.55804e-09, cumulative = -2.13889e-07
DILUPBiCGStab:  Solving for omega, Initial residual = 0.000138765, Final residual = 3.14332e-09, No Iterations 2
DILUPBiCGStab:  Solving for k, Initial residual = 0.00581988, Final residual = 3.83149e-09, No Iterations 3

ExecutionTime = 2.03 s  ClockTime = 2 s

    Overall     = 0.00166485, 0.01
Time = 265

diagonal:  Solving for rho, Initial residual = 0, Final residual = 0, No Iterations 0

Execution time for mesh.update() = 0 s

DILUPBiCGStab:  Solving for Ux, Initial residual = 0.00561688, Final residual = 1.24667e-09, No Iterations 3
DILUPBiCGStab:  Solving for Uy, Initial residual = 0.00880249, Final residual = 2.40811e-09, No Iterations 3
DILUPBiCGStab:  Solving for O2, Initial residual = 0.00312233, Final residual = 3.01303e-09, No Iterations 3
DILUPBiCGStab:  Solving for H2O, Initial residual = 0.0031223, Final residual = 3.01308e-09, No Iterations 3
DILUPBiCGStab:  Solving for CH4, Initial residual = 0, Final residual = 0, No Iterations 0
DILUPBiCGStab:  Solving for CO2, Initial residual = 0.0031223, Final residual = 3.01308e-09, No Iterations 3
DILUPBiCGStab:  Solving for h, Initial residual = 0.00348369, Final residual = 3.30806e-09, No Iterations 3
min/max(T) = 299.696, 1044.97
GAMGPCG:  Solving for p_rgh, Initial residual = 0.0204494, Final residual = 4.47724e-07, No Iterations 4
diagonal:  Solving for rho, Initial residual = 0, Final residual = 0, No Iterations 0
time step continuity errors : sum local = 2.55322e-08, global = -7.01612e-10, cumulative = -2.14591e-07
GAMGPCG:  Solving for p_rgh, Initial residual = 0.00310634, Final residual = 1.73007e-07, No Iterations 4
diagonal:  Solving for rho, Initial residual = 0, Final residual = 0, No Iterations 0
time step continuity errors : sum local = 9.21342e-09, global = 1.67981e-09, cumulative = -2.12911e-07
DILUPBiCGStab:  Solving for omega, Initial residual = 0.000138822, Final residual = 3.08021e-09, No Iterations 2
DILUPBiCGStab:  Solving for k, Initial residual = 0.00583301, Final residual = 4.66662e-09, No Iterations 3

ExecutionTime = 2.14 s  ClockTime = 2 s

    Overall     = 0.00166616, 0.01
Time = 266

diagonal:  Solving for rho, Initial residual = 0, Final residual = 0, No Iterations 0

Execution time for mesh.update() = 0 s

DILUPBiCGStab:  Solving for Ux, Initial residual = 0.0056483, Final residual = 1.22316e-09, No Iterations 3
DILUPBiCGStab:  Solving for Uy, Initial residual = 0.00880863, Final residual = 1.88497e-09, No Iterations 3
DILUPBiCGStab:  Solving for O2, Initial residual = 0.00313324, Final residual = 3.5927e-09, No Iterations 3
DILUPBiCGStab:  Solving for H2O, Initial residual = 0.00313336, Final residual = 3.59269e-09, No Iterations 3
DILUPBiCGStab:  Solving for CH4, Initial residual = 0, Final residual = 0, No Iterations 0
DILUPBiCGStab:  Solving for CO2, Initial residual = 0.00313336, Final residual = 3.59269e-09, No Iterations 3
DILUPBiCGStab:  Solving for h, Initial residual = 0.00350034, Final residual = 3.93686e-09, No Iterations 3
min/max(T) = 299.691, 1044.97
GAMGPCG:  Solving for p_rgh, Initial residual = 0.0205532, Final residual = 5.73421e-07, No Iterations 4
diagonal:  Solving for rho, Initial residual = 0, Final residual = 0, No Iterations 0
time step continuity errors : sum local = 3.22146e-08, global = 3.95842e-10, cumulative = -2.12515e-07
GAMGPCG:  Solving for p_rgh, Initial residual = 0.00314354, Final residual = 2.06609e-07, No Iterations 4
diagonal:  Solving for rho, Initial residual = 0, Final residual = 0, No Iterations 0
time step continuity errors : sum local = 1.09968e-08, global = 1.68546e-09, cumulative = -2.1083e-07
DILUPBiCGStab:  Solving for omega, Initial residual = 0.000139361, Final residual = 2.96121e-09, No Iterations 2
DILUPBiCGStab:  Solving for k, Initial residual = 0.00583239, Final residual = 4.0276e-09, No Iterations 3

ExecutionTime = 2.26 s  ClockTime = 2 s

    Overall     = 0.00164382, 0.01
Time = 267

diagonal:  Solving for rho, Initial residual = 0, Final residual = 0, No Iterations 0

Execution time for mesh.update() = 0 s

DILUPBiCGStab:  Solving for Ux, Initial residual = 0.00564925, Final residual = 9.96826e-09, No Iterations 3
DILUPBiCGStab:  Solving for Uy, Initial residual = 0.00878363, Final residual = 1.44206e-09, No Iterations 3
DILUPBiCGStab:  Solving for O2, Initial residual = 0.0031331, Final residual = 3.61897e-09, No Iterations 3
DILUPBiCGStab:  Solving for H2O, Initial residual = 0.00313306, Final residual = 3.61901e-09, No Iterations 3
DILUPBiCGStab:  Solving for CH4, Initial residual = 0, Final residual = 0, No Iterations 0
DILUPBiCGStab:  Solving for CO2, Initial residual = 0.00313306, Final residual = 3.61901e-09, No Iterations 3
DILUPBiCGStab:  Solving for h, Initial residual = 0.00350389, Final residual = 3.86759e-09, No Iterations 3
min/max(T) = 299.711, 1044.97
GAMGPCG:  Solving for p_rgh, Initial residual = 0.0202294, Final residual = 4.8121e-07, No Iterations 4
diagonal:  Solving for rho, Initial residual = 0, Final residual = 0, No Iterations 0
time step continuity errors : sum local = 2.74779e-08, global = 1.70895e-09, cumulative = -2.09121e-07
GAMGPCG:  Solving for p_rgh, Initial residual = 0.00318739, Final residual = 1.98633e-07, No Iterations 4
diagonal:  Solving for rho, Initial residual = 0, Final residual = 0, No Iterations 0
time step continuity errors : sum local = 1.06031e-08, global = 1.7009e-09, cumulative = -2.0742e-07
DILUPBiCGStab:  Solving for omega, Initial residual = 0.000140028, Final residual = 2.89114e-09, No Iterations 2
DILUPBiCGStab:  Solving for k, Initial residual = 0.00583741, Final residual = 4.6239e-09, No Iterations 3

ExecutionTime = 2.38 s  ClockTime = 2 s

    Overall     = 0.00164536, 0.01
Time = 268

diagonal:  Solving for rho, Initial residual = 0, Final residual = 0, No Iterations 0

Execution time for mesh.update() = 0 s

DILUPBiCGStab:  Solving for Ux, Initial residual = 0.00567157, Final residual = 9.29884e-09, No Iterations 3
DILUPBiCGStab:  Solving for Uy, Initial residual = 0.00875478, Final residual = 1.34735e-09, No Iterations 3
DILUPBiCGStab:  Solving for O2, Initial residual = 0.00314948, Final residual = 5.83968e-09, No Iterations 3
DILUPBiCGStab:  Solving for H2O, Initial residual = 0.00314959, Final residual = 5.83977e-09, No Iterations 3
DILUPBiCGStab:  Solving for CH4, Initial residual = 0, Final residual = 0, No Iterations 0
DILUPBiCGStab:  Solving for CO2, Initial residual = 0.00314959, Final residual = 5.83977e-09, No Iterations 3
DILUPBiCGStab:  Solving for h, Initial residual = 0.00352538, Final residual = 6.14408e-09, No Iterations 3
min/max(T) = 299.69, 1044.97
GAMGPCG:  Solving for p_rgh, Initial residual = 0.0204399, Final residual = 6.57009e-07, No Iterations 4
diagonal:  Solving for rho, Initial residual = 0, Final residual = 0, No Iterations 0
time step continuity errors : sum local = 3.6801e-08, global = 1.00184e-10, cumulative = -2.0732e-07
GAMGPCG:  Solving for p_rgh, Initial residual = 0.00321862, Final residual = 2.08525e-07, No Iterations 4
diagonal:  Solving for rho, Initial residual = 0, Final residual = 0, No Iterations 0
time step continuity errors : sum local = 1.11403e-08, global = 1.55784e-09, cumulative = -2.05762e-07
DILUPBiCGStab:  Solving for omega, Initial residual = 0.000139892, Final residual = 2.98943e-09, No Iterations 2
DILUPBiCGStab:  Solving for k, Initial residual = 0.00585079, Final residual = 6.04025e-09, No Iterations 3

ExecutionTime = 2.49 s  ClockTime = 2 s

    Overall     = 0.00162045, 0.01
Time = 269

diagonal:  Solving for rho, Initial residual = 0, Final residual = 0, No Iterations 0

Execution time for mesh.update() = 0 s

DILUPBiCGStab:  Solving for Ux, Initial residual = 0.00565803, Final residual = 8.20922e-09, No Iterations 3
DILUPBiCGStab:  Solving for Uy, Initial residual = 0.00872437, Final residual = 1.42635e-09, No Iterations 3
DILUPBiCGStab:  Solving for O2, Initial residual = 0.00315697, Final residual = 5.62416e-09, No Iterations 3
DILUPBiCGStab:  Solving for H2O, Initial residual = 0.00315693, Final residual = 5.62473e-09, No Iterations 3
DILUPBiCGStab:  Solving for CH4, Initial residual = 0, Final residual = 0, No Iterations 0
DILUPBiCGStab:  Solving for CO2, Initial residual = 0.00315693, Final residual = 5.62473e-09, No Iterations 3
DILUPBiCGStab:  Solving for h, Initial residual = 0.00353608, Final residual = 5.92531e-09, No Iterations 3
min/max(T) = 299.726, 1044.97
GAMGPCG:  Solving for p_rgh, Initial residual = 0.0203489, Final residual = 6.50611e-07, No Iterations 4
diagonal:  Solving for rho, Initial residual = 0, Final residual = 0, No Iterations 0
time step continuity errors : sum local = 3.65231e-08, global = -4.7881e-09, cumulative = -2.1055e-07
GAMGPCG:  Solving for p_rgh, Initial residual = 0.00319337, Final residual = 2.16139e-07, No Iterations 4
diagonal:  Solving for rho, Initial residual = 0, Final residual = 0, No Iterations 0
time step continuity errors : sum local = 1.15183e-08, global = 1.61405e-09, cumulative = -2.08936e-07
DILUPBiCGStab:  Solving for omega, Initial residual = 0.000141455, Final residual = 3.32428e-09, No Iterations 2
DILUPBiCGStab:  Solving for k, Initial residual = 0.00587065, Final residual = 1.11949e-09, No Iterations 3

ExecutionTime = 2.61 s  ClockTime = 3 s

    Overall     = 0.00162541, 0.01
Time = 270

diagonal:  Solving for rho, Initial residual = 0, Final residual = 0, No Iterations 0

Execution time for mesh.update() = 0 s

DILUPBiCGStab:  Solving for Ux, Initial residual = 0.00569884, Final residual = 8.72721e-09, No Iterations 3
DILUPBiCGStab:  Solving for Uy, Initial residual = 0.00869031, Final residual = 1.41168e-09, No Iterations 3
GAMGPCG:  Solving for G, Initial residual = 0.156742, Final residual = 3.73143e-05, No Iterations 6
DILUPBiCGStab:  Solving for O2, Initial residual = 0.00317144, Final residual = 6.6199e-09, No Iterations 3
DILUPBiCGStab:  Solving for H2O, Initial residual = 0.00317155, Final residual = 6.61995e-09, No Iterations 3
DILUPBiCGStab:  Solving for CH4, Initial residual = 0, Final residual = 0, No Iterations 0
DILUPBiCGStab:  Solving for CO2, Initial residual = 0.00317155, Final residual = 6.61995e-09, No Iterations 3
DILUPBiCGStab:  Solving for h, Initial residual = 0.00356029, Final residual = 6.4537e-09, No Iterations 3
min/max(T) = 299.72, 1044.97
GAMGPCG:  Solving for p_rgh, Initial residual = 0.0202197, Final residual = 8.58903e-07, No Iterations 4
diagonal:  Solving for rho, Initial residual = 0, Final residual = 0, No Iterations 0
time step continuity errors : sum local = 4.81755e-08, global = -4.42144e-09, cumulative = -2.13357e-07
GAMGPCG:  Solving for p_rgh, Initial residual = 0.00325646, Final residual = 2.22036e-07, No Iterations 4
diagonal:  Solving for rho, Initial residual = 0, Final residual = 0, No Iterations 0
time step continuity errors : sum local = 1.17805e-08, global = 1.53068e-09, cumulative = -2.11827e-07
DILUPBiCGStab:  Solving for omega, Initial residual = 0.000142932, Final residual = 3.34352e-09, No Iterations 2
bounding omega, min: -0.814931 max: 15705.5 average: 297.322
DILUPBiCGStab:  Solving for k, Initial residual = 0.00588599, Final residual = 7.08002e-09, No Iterations 3

ExecutionTime = 2.86 s  ClockTime = 3 s

    Overall     = 0.00159464, 0.01
Time = 271

diagonal:  Solving for rho, Initial residual = 0, Final residual = 0, No Iterations 0

Execution time for mesh.update() = 0 s

DILUPBiCGStab:  Solving for Ux, Initial residual = 0.00570072, Final residual = 6.99453e-09, No Iterations 3
DILUPBiCGStab:  Solving for Uy, Initial residual = 0.00862381, Final residual = 1.46542e-09, No Iterations 3
DILUPBiCGStab:  Solving for O2, Initial residual = 0.0031788, Final residual = 6.90904e-09, No Iterations 3
DILUPBiCGStab:  Solving for H2O, Initial residual = 0.00317906, Final residual = 6.90923e-09, No Iterations 3
DILUPBiCGStab:  Solving for CH4, Initial residual = 0, Final residual = 0, No Iterations 0
DILUPBiCGStab:  Solving for CO2, Initial residual = 0.00317907, Final residual = 6.90924e-09, No Iterations 3
DILUPBiCGStab:  Solving for h, Initial residual = 0.00356758, Final residual = 6.1662e-09, No Iterations 3
min/max(T) = 299.522, 1044.97
GAMGPCG:  Solving for p_rgh, Initial residual = 0.0203088, Final residual = 6.45263e-07, No Iterations 4
diagonal:  Solving for rho, Initial residual = 0, Final residual = 0, No Iterations 0
time step continuity errors : sum local = 3.64087e-08, global = -4.64213e-09, cumulative = -2.16469e-07
GAMGPCG:  Solving for p_rgh, Initial residual = 0.00320836, Final residual = 1.94658e-07, No Iterations 4
diagonal:  Solving for rho, Initial residual = 0, Final residual = 0, No Iterations 0
time step continuity errors : sum local = 1.0369e-08, global = 1.4629e-09, cumulative = -2.15006e-07
DILUPBiCGStab:  Solving for omega, Initial residual = 0.000142278, Final residual = 3.18494e-09, No Iterations 2
DILUPBiCGStab:  Solving for k, Initial residual = 0.00590951, Final residual = 1.20868e-09, No Iterations 3

ExecutionTime = 2.98 s  ClockTime = 3 s

    Overall     = 0.00158765, 0.01
Time = 272

diagonal:  Solving for rho, Initial residual = 0, Final residual = 0, No Iterations 0

Execution time for mesh.update() = 0 s

DILUPBiCGStab:  Solving for Ux, Initial residual = 0.00571671, Final residual = 9.15763e-09, No Iterations 3
DILUPBiCGStab:  Solving for Uy, Initial residual = 0.00858607, Final residual = 1.41894e-09, No Iterations 3
DILUPBiCGStab:  Solving for O2, Initial residual = 0.00319606, Final residual = 6.88652e-09, No Iterations 3
DILUPBiCGStab:  Solving for H2O, Initial residual = 0.00319599, Final residual = 6.88692e-09, No Iterations 3
DILUPBiCGStab:  Solving for CH4, Initial residual = 0, Final residual = 0, No Iterations 0
DILUPBiCGStab:  Solving for CO2, Initial residual = 0.003196, Final residual = 6.88692e-09, No Iterations 3
DILUPBiCGStab:  Solving for h, Initial residual = 0.00359048, Final residual = 6.58318e-09, No Iterations 3
min/max(T) = 299.742, 1044.97
GAMGPCG:  Solving for p_rgh, Initial residual = 0.0200953, Final residual = 8.46491e-07, No Iterations 4
diagonal:  Solving for rho, Initial residual = 0, Final residual = 0, No Iterations 0
time step continuity errors : sum local = 4.7774e-08, global = -2.93833e-09, cumulative = -2.17944e-07
GAMGPCG:  Solving for p_rgh, Initial residual = 0.00321918, Final residual = 1.7135e-07, No Iterations 4
diagonal:  Solving for rho, Initial residual = 0, Final residual = 0, No Iterations 0
time step continuity errors : sum local = 9.05554e-09, global = 1.5196e-09, cumulative = -2.16424e-07
DILUPBiCGStab:  Solving for omega, Initial residual = 0.000145279, Final residual = 2.81338e-09, No Iterations 2
DILUPBiCGStab:  Solving for k, Initial residual = 0.00592153, Final residual = 7.61243e-09, No Iterations 3

ExecutionTime = 3.1 s  ClockTime = 3 s

    Overall     = 0.00159121, 0.01
Time = 273

diagonal:  Solving for rho, Initial residual = 0, Final residual = 0, No Iterations 0

Execution time for mesh.update() = 0 s

DILUPBiCGStab:  Solving for Ux, Initial residual = 0.00571856, Final residual = 8.54797e-09, No Iterations 3
DILUPBiCGStab:  Solving for Uy, Initial residual = 0.00853742, Final residual = 1.388e-09, No Iterations 3
DILUPBiCGStab:  Solving for O2, Initial residual = 0.00321679, Final residual = 4.41963e-09, No Iterations 3
DILUPBiCGStab:  Solving for H2O, Initial residual = 0.00321694, Final residual = 4.41968e-09, No Iterations 3
DILUPBiCGStab:  Solving for CH4, Initial residual = 0, Final residual = 0, No Iterations 0
DILUPBiCGStab:  Solving for CO2, Initial residual = 0.00321695, Final residual = 4.41968e-09, No Iterations 3
DILUPBiCGStab:  Solving for h, Initial residual = 0.00361679, Final residual = 4.99966e-09, No Iterations 3
min/max(T) = 299.69, 1044.97
GAMGPCG:  Solving for p_rgh, Initial residual = 0.0206529, Final residual = 7.31506e-07, No Iterations 4
diagonal:  Solving for rho, Initial residual = 0, Final residual = 0, No Iterations 0
time step continuity errors : sum local = 4.16355e-08, global = -5.06396e-09, cumulative = -2.21488e-07
GAMGPCG:  Solving for p_rgh, Initial residual = 0.00313682, Final residual = 1.83919e-07, No Iterations 4
diagonal:  Solving for rho, Initial residual = 0, Final residual = 0, No Iterations 0
time step continuity errors : sum local = 9.64284e-09, global = 1.63986e-09, cumulative = -2.19849e-07
DILUPBiCGStab:  Solving for omega, Initial residual = 0.000145631, Final residual = 2.77252e-09, No Iterations 2
bounding omega, min: -2.04789 max: 15706.1 average: 297.253
DILUPBiCGStab:  Solving for k, Initial residual = 0.0059494, Final residual = 1.51804e-09, No Iterations 3

ExecutionTime = 3.21 s  ClockTime = 3 s

    Overall     = 0.00156059, 0.01
Time = 274

diagonal:  Solving for rho, Initial residual = 0, Final residual = 0, No Iterations 0

Execution time for mesh.update() = 0 s

DILUPBiCGStab:  Solving for Ux, Initial residual = 0.00572575, Final residual = 9.10907e-09, No Iterations 3
DILUPBiCGStab:  Solving for Uy, Initial residual = 0.00850407, Final residual = 1.31062e-09, No Iterations 3
DILUPBiCGStab:  Solving for O2, Initial residual = 0.00322442, Final residual = 4.19176e-09, No Iterations 3
DILUPBiCGStab:  Solving for H2O, Initial residual = 0.00322468, Final residual = 4.19188e-09, No Iterations 3
DILUPBiCGStab:  Solving for CH4, Initial residual = 0, Final residual = 0, No Iterations 0
DILUPBiCGStab:  Solving for CO2, Initial residual = 0.00322468, Final residual = 4.19188e-09, No Iterations 3
DILUPBiCGStab:  Solving for h, Initial residual = 0.00362704, Final residual = 4.6373e-09, No Iterations 3
min/max(T) = 299.49, 1044.97
GAMGPCG:  Solving for p_rgh, Initial residual = 0.0202477, Final residual = 8.61856e-07, No Iterations 4
diagonal:  Solving for rho, Initial residual = 0, Final residual = 0, No Iterations 0
time step continuity errors : sum local = 4.85336e-08, global = -2.94775e-09, cumulative = -2.22796e-07
GAMGPCG:  Solving for p_rgh, Initial residual = 0.0030861, Final residual = 1.63063e-07, No Iterations 4
diagonal:  Solving for rho, Initial residual = 0, Final residual = 0, No Iterations 0
time step continuity errors : sum local = 8.54154e-09, global = 1.64323e-09, cumulative = -2.21153e-07
DILUPBiCGStab:  Solving for omega, Initial residual = 0.000144015, Final residual = 2.67522e-09, No Iterations 2
DILUPBiCGStab:  Solving for k, Initial residual = 0.00596322, Final residual = 2.74877e-09, No Iterations 3

ExecutionTime = 3.33 s  ClockTime = 3 s

    Overall     = 0.00155393, 0.01
Time = 275

diagonal:  Solving for rho, Initial residual = 0, Final residual = 0, No Iterations 0

Execution time for mesh.update() = 0 s

DILUPBiCGStab:  Solving for Ux, Initial residual = 0.00572565, Final residual = 8.63432e-09, No Iterations 3
DILUPBiCGStab:  Solving for Uy, Initial residual = 0.00841925, Final residual = 1.19979e-09, No Iterations 3
DILUPBiCGStab:  Solving for O2, Initial residual = 0.0032453, Final residual = 4.2475e-09, No Iterations 3
DILUPBiCGStab:  Solving for H2O, Initial residual = 0.00324523, Final residual = 4.24777e-09, No Iterations 3
DILUPBiCGStab:  Solving for CH4, Initial residual = 0, Final residual = 0, No Iterations 0
DILUPBiCGStab:  Solving for CO2, Initial residual = 0.00324523, Final residual = 4.24777e-09, No Iterations 3
DILUPBiCGStab:  Solving for h, Initial residual = 0.00365352, Final residual = 4.61649e-09, No Iterations 3
min/max(T) = 299.763, 1044.97
GAMGPCG:  Solving for p_rgh, Initial residual = 0.02048, Final residual = 7.14062e-07, No Iterations 4
diagonal:  Solving for rho, Initial residual = 0, Final residual = 0, No Iterations 0
time step continuity errors : sum local = 4.05695e-08, global = -4.31132e-09, cumulative = -2.25464e-07
GAMGPCG:  Solving for p_rgh, Initial residual = 0.00304733, Final residual = 1.66752e-07, No Iterations 4
diagonal:  Solving for rho, Initial residual = 0, Final residual = 0, No Iterations 0
time step continuity errors : sum local = 8.71116e-09, global = 1.76489e-09, cumulative = -2.237e-07
DILUPBiCGStab:  Solving for omega, Initial residual = 0.000146197, Final residual = 2.51433e-09, No Iterations 2
DILUPBiCGStab:  Solving for k, Initial residual = 0.00597822, Final residual = 5.08358e-11, No Iterations 4

ExecutionTime = 3.45 s  ClockTime = 3 s

    Overall     = 0.00155153, 0.01
Time = 276

diagonal:  Solving for rho, Initial residual = 0, Final residual = 0, No Iterations 0

Execution time for mesh.update() = 0 s

DILUPBiCGStab:  Solving for Ux, Initial residual = 0.00573633, Final residual = 8.87484e-09, No Iterations 3
DILUPBiCGStab:  Solving for Uy, Initial residual = 0.00838476, Final residual = 1.37937e-09, No Iterations 3
DILUPBiCGStab:  Solving for O2, Initial residual = 0.00326314, Final residual = 3.94725e-09, No Iterations 3
DILUPBiCGStab:  Solving for H2O, Initial residual = 0.00326332, Final residual = 3.94727e-09, No Iterations 3
DILUPBiCGStab:  Solving for CH4, Initial residual = 0, Final residual = 0, No Iterations 0
DILUPBiCGStab:  Solving for CO2, Initial residual = 0.00326332, Final residual = 3.94727e-09, No Iterations 3
DILUPBiCGStab:  Solving for h, Initial residual = 0.00367771, Final residual = 4.31577e-09, No Iterations 3
min/max(T) = 299.583, 1044.97
GAMGPCG:  Solving for p_rgh, Initial residual = 0.0199144, Final residual = 7.87526e-07, No Iterations 4
diagonal:  Solving for rho, Initial residual = 0, Final residual = 0, No Iterations 0
time step continuity errors : sum local = 4.43449e-08, global = -3.02932e-09, cumulative = -2.26729e-07
GAMGPCG:  Solving for p_rgh, Initial residual = 0.00300139, Final residual = 1.93419e-07, No Iterations 4
diagonal:  Solving for rho, Initial residual = 0, Final residual = 0, No Iterations 0
time step continuity errors : sum local = 1.00559e-08, global = 2.04781e-09, cumulative = -2.24681e-07
DILUPBiCGStab:  Solving for omega, Initial residual = 0.000145855, Final residual = 2.48958e-09, No Iterations 2
DILUPBiCGStab:  Solving for k, Initial residual = 0.00599379, Final residual = 9.76303e-09, No Iterations 3

ExecutionTime = 3.57 s  ClockTime = 3 s

    Overall     = 0.00152977, 0.01
Time = 277

diagonal:  Solving for rho, Initial residual = 0, Final residual = 0, No Iterations 0

Execution time for mesh.update() = 0 s

DILUPBiCGStab:  Solving for Ux, Initial residual = 0.00574904, Final residual = 9.55721e-09, No Iterations 3
DILUPBiCGStab:  Solving for Uy, Initial residual = 0.00833004, Final residual = 1.34365e-09, No Iterations 3
DILUPBiCGStab:  Solving for O2, Initial residual = 0.00326893, Final residual = 3.70238e-09, No Iterations 3
DILUPBiCGStab:  Solving for H2O, Initial residual = 0.00326885, Final residual = 3.70246e-09, No Iterations 3
DILUPBiCGStab:  Solving for CH4, Initial residual = 0, Final residual = 0, No Iterations 0
DILUPBiCGStab:  Solving for CO2, Initial residual = 0.00326885, Final residual = 3.70246e-09, No Iterations 3
DILUPBiCGStab:  Solving for h, Initial residual = 0.0036849, Final residual = 4.24331e-09, No Iterations 3
min/max(T) = 299.767, 1044.97
GAMGPCG:  Solving for p_rgh, Initial residual = 0.0199243, Final residual = 7.38688e-07, No Iterations 4
diagonal:  Solving for rho, Initial residual = 0, Final residual = 0, No Iterations 0
time step continuity errors : sum local = 4.18794e-08, global = -3.04841e-09, cumulative = -2.27729e-07
GAMGPCG:  Solving for p_rgh, Initial residual = 0.00291063, Final residual = 2.21608e-07, No Iterations 4
diagonal:  Solving for rho, Initial residual = 0, Final residual = 0, No Iterations 0
time step continuity errors : sum local = 1.15434e-08, global = 2.41125e-09, cumulative = -2.25318e-07
DILUPBiCGStab:  Solving for omega, Initial residual = 0.000148259, Final residual = 2.20891e-09, No Iterations 2
DILUPBiCGStab:  Solving for k, Initial residual = 0.00601071, Final residual = 5.37592e-09, No Iterations 3

ExecutionTime = 3.68 s  ClockTime = 4 s

    Overall     = 0.00153486, 0.01
Time = 278

diagonal:  Solving for rho, Initial residual = 0, Final residual = 0, No Iterations 0

Execution time for mesh.update() = 0 s

DILUPBiCGStab:  Solving for Ux, Initial residual = 0.00575251, Final residual = 9.42636e-09, No Iterations 3
DILUPBiCGStab:  Solving for Uy, Initial residual = 0.00826924, Final residual = 1.36294e-09, No Iterations 3
DILUPBiCGStab:  Solving for O2, Initial residual = 0.00329099, Final residual = 3.78693e-09, No Iterations 3
DILUPBiCGStab:  Solving for H2O, Initial residual = 0.00329112, Final residual = 3.78692e-09, No Iterations 3
DILUPBiCGStab:  Solving for CH4, Initial residual = 0, Final residual = 0, No Iterations 0
DILUPBiCGStab:  Solving for CO2, Initial residual = 0.00329112, Final residual = 3.78692e-09, No Iterations 3
DILUPBiCGStab:  Solving for h, Initial residual = 0.00371554, Final residual = 4.27562e-09, No Iterations 3
min/max(T) = 299.5, 1044.97
GAMGPCG:  Solving for p_rgh, Initial residual = 0.0198481, Final residual = 7.44492e-07, No Iterations 4
diagonal:  Solving for rho, Initial residual = 0, Final residual = 0, No Iterations 0
time step continuity errors : sum local = 4.20066e-08, global = -2.02745e-09, cumulative = -2.27346e-07
GAMGPCG:  Solving for p_rgh, Initial residual = 0.00286893, Final residual = 1.81648e-07, No Iterations 4
diagonal:  Solving for rho, Initial residual = 0, Final residual = 0, No Iterations 0
time step continuity errors : sum local = 9.52715e-09, global = 1.91903e-09, cumulative = -2.25427e-07
DILUPBiCGStab:  Solving for omega, Initial residual = 0.00014803, Final residual = 2.21148e-09, No Iterations 2
bounding omega, min: -2.32674 max: 15706.3 average: 297.22
DILUPBiCGStab:  Solving for k, Initial residual = 0.00601479, Final residual = 1.64589e-09, No Iterations 3

ExecutionTime = 3.8 s  ClockTime = 4 s

    Overall     = 0.00150526, 0.01
Time = 279

diagonal:  Solving for rho, Initial residual = 0, Final residual = 0, No Iterations 0

Execution time for mesh.update() = 0 s

DILUPBiCGStab:  Solving for Ux, Initial residual = 0.00577261, Final residual = 9.13096e-09, No Iterations 3
DILUPBiCGStab:  Solving for Uy, Initial residual = 0.00823909, Final residual = 1.09364e-09, No Iterations 3
DILUPBiCGStab:  Solving for O2, Initial residual = 0.0032993, Final residual = 3.66903e-09, No Iterations 3
DILUPBiCGStab:  Solving for H2O, Initial residual = 0.00329971, Final residual = 3.66911e-09, No Iterations 3
DILUPBiCGStab:  Solving for CH4, Initial residual = 0, Final residual = 0, No Iterations 0
DILUPBiCGStab:  Solving for CO2, Initial residual = 0.00329971, Final residual = 3.66911e-09, No Iterations 3
DILUPBiCGStab:  Solving for h, Initial residual = 0.0037254, Final residual = 4.11127e-09, No Iterations 3
min/max(T) = 299.43, 1044.97
GAMGPCG:  Solving for p_rgh, Initial residual = 0.0196077, Final residual = 7.57933e-07, No Iterations 4
diagonal:  Solving for rho, Initial residual = 0, Final residual = 0, No Iterations 0
time step continuity errors : sum local = 4.27097e-08, global = -1.64822e-09, cumulative = -2.27075e-07
GAMGPCG:  Solving for p_rgh, Initial residual = 0.00294797, Final residual = 1.96431e-07, No Iterations 4
diagonal:  Solving for rho, Initial residual = 0, Final residual = 0, No Iterations 0
time step continuity errors : sum local = 1.03951e-08, global = 1.97145e-09, cumulative = -2.25103e-07
DILUPBiCGStab:  Solving for omega, Initial residual = 0.000147086, Final residual = 2.24664e-09, No Iterations 2
DILUPBiCGStab:  Solving for k, Initial residual = 0.00602926, Final residual = 1.44715e-09, No Iterations 3

ExecutionTime = 3.92 s  ClockTime = 4 s

    Overall     = 0.00150129, 0.01
Time = 280

diagonal:  Solving for rho, Initial residual = 0, Final residual = 0, No Iterations 0

Execution time for mesh.update() = 0 s

DILUPBiCGStab:  Solving for Ux, Initial residual = 0.00577958, Final residual = 9.23828e-09, No Iterations 3
DILUPBiCGStab:  Solving for Uy, Initial residual = 0.00820135, Final residual = 9.5704e-09, No Iterations 3
GAMGPCG:  Solving for G, Initial residual = 0.170756, Final residual = 4.21554e-05, No Iterations 6
DILUPBiCGStab:  Solving for O2, Initial residual = 0.0033104, Final residual = 3.80983e-09, No Iterations 3
DILUPBiCGStab:  Solving for H2O, Initial residual = 0.00330999, Final residual = 3.80996e-09, No Iterations 3
DILUPBiCGStab:  Solving for CH4, Initial residual = 0, Final residual = 0, No Iterations 0
DILUPBiCGStab:  Solving for CO2, Initial residual = 0.00330999, Final residual = 3.80996e-09, No Iterations 3
DILUPBiCGStab:  Solving for h, Initial residual = 0.00374053, Final residual = 4.23077e-09, No Iterations 3
min/max(T) = 299.766, 1044.97
GAMGPCG:  Solving for p_rgh, Initial residual = 0.0196669, Final residual = 8.14554e-07, No Iterations 4
diagonal:  Solving for rho, Initial residual = 0, Final residual = 0, No Iterations 0
time step continuity errors : sum local = 4.54607e-08, global = -2.19231e-09, cumulative = -2.27296e-07
GAMGPCG:  Solving for p_rgh, Initial residual = 0.00280822, Final residual = 2.30551e-07, No Iterations 4
diagonal:  Solving for rho, Initial residual = 0, Final residual = 0, No Iterations 0
time step continuity errors : sum local = 1.22629e-08, global = 2.02174e-09, cumulative = -2.25274e-07
DILUPBiCGStab:  Solving for omega, Initial residual = 0.000149657, Final residual = 2.18955e-09, No Iterations 2
DILUPBiCGStab:  Solving for k, Initial residual = 0.00603462, Final residual = 8.32307e-10, No Iterations 3

ExecutionTime = 4.16 s  ClockTime = 4 s

    Overall     = 0.00150522, 0.01
Time = 281

diagonal:  Solving for rho, Initial residual = 0, Final residual = 0, No Iterations 0

Execution time for mesh.update() = 0 s

DILUPBiCGStab:  Solving for Ux, Initial residual = 0.00580285, Final residual = 9.11971e-09, No Iterations 3
DILUPBiCGStab:  Solving for Uy, Initial residual = 0.00814185, Final residual = 8.4404e-09, No Iterations 3
DILUPBiCGStab:  Solving for O2, Initial residual = 0.00332772, Final residual = 3.71846e-09, No Iterations 3
DILUPBiCGStab:  Solving for H2O, Initial residual = 0.0033279, Final residual = 3.71845e-09, No Iterations 3
DILUPBiCGStab:  Solving for CH4, Initial residual = 0, Final residual = 0, No Iterations 0
DILUPBiCGStab:  Solving for CO2, Initial residual = 0.0033279, Final residual = 3.71845e-09, No Iterations 3
DILUPBiCGStab:  Solving for h, Initial residual = 0.00376878, Final residual = 3.98462e-09, No Iterations 3
min/max(T) = 299.44, 1044.97
GAMGPCG:  Solving for p_rgh, Initial residual = 0.0195265, Final residual = 7.7093e-07, No Iterations 4
diagonal:  Solving for rho, Initial residual = 0, Final residual = 0, No Iterations 0
time step continuity errors : sum local = 4.31734e-08, global = -9.13462e-10, cumulative = -2.26187e-07
GAMGPCG:  Solving for p_rgh, Initial residual = 0.00285134, Final residual = 2.61785e-07, No Iterations 4
diagonal:  Solving for rho, Initial residual = 0, Final residual = 0, No Iterations 0
time step continuity errors : sum local = 1.39593e-08, global = 2.10842e-09, cumulative = -2.24079e-07
DILUPBiCGStab:  Solving for omega, Initial residual = 0.000149113, Final residual = 2.25635e-09, No Iterations 2
bounding omega, min: -3.72175 max: 15706 average: 297.254
DILUPBiCGStab:  Solving for k, Initial residual = 0.00605062, Final residual = 6.00442e-09, No Iterations 3

ExecutionTime = 4.28 s  ClockTime = 4 s

    Overall     = 0.00147907, 0.01
Time = 282

diagonal:  Solving for rho, Initial residual = 0, Final residual = 0, No Iterations 0

Execution time for mesh.update() = 0 s

DILUPBiCGStab:  Solving for Ux, Initial residual = 0.00579527, Final residual = 8.6345e-09, No Iterations 3
DILUPBiCGStab:  Solving for Uy, Initial residual = 0.00809784, Final residual = 8.38274e-09, No Iterations 3
DILUPBiCGStab:  Solving for O2, Initial residual = 0.00333141, Final residual = 3.52511e-09, No Iterations 3
DILUPBiCGStab:  Solving for H2O, Initial residual = 0.00333192, Final residual = 3.52516e-09, No Iterations 3
DILUPBiCGStab:  Solving for CH4, Initial residual = 0, Final residual = 0, No Iterations 0
DILUPBiCGStab:  Solving for CO2, Initial residual = 0.00333193, Final residual = 3.52516e-09, No Iterations 3
DILUPBiCGStab:  Solving for h, Initial residual = 0.00376607, Final residual = 3.61513e-09, No Iterations 3
min/max(T) = 299.412, 1044.97
GAMGPCG:  Solving for p_rgh, Initial residual = 0.0190472, Final residual = 8.87648e-07, No Iterations 4
diagonal:  Solving for rho, Initial residual = 0, Final residual = 0, No Iterations 0
time step continuity errors : sum local = 4.94083e-08, global = -2.75013e-09, cumulative = -2.26829e-07
GAMGPCG:  Solving for p_rgh, Initial residual = 0.00275322, Final residual = 2.64369e-07, No Iterations 4
diagonal:  Solving for rho, Initial residual = 0, Final residual = 0, No Iterations 0
time step continuity errors : sum local = 1.41374e-08, global = 2.00924e-09, cumulative = -2.2482e-07
DILUPBiCGStab:  Solving for omega, Initial residual = 0.000146687, Final residual = 2.04572e-09, No Iterations 2
DILUPBiCGStab:  Solving for k, Initial residual = 0.00605806, Final residual = 4.36518e-09, No Iterations 3

ExecutionTime = 4.4 s  ClockTime = 4 s

    Overall     = 0.00147471, 0.01
Time = 283

diagonal:  Solving for rho, Initial residual = 0, Final residual = 0, No Iterations 0

Execution time for mesh.update() = 0 s

DILUPBiCGStab:  Solving for Ux, Initial residual = 0.00580292, Final residual = 7.92493e-09, No Iterations 3
DILUPBiCGStab:  Solving for Uy, Initial residual = 0.00807317, Final residual = 8.39538e-09, No Iterations 3
DILUPBiCGStab:  Solving for O2, Initial residual = 0.003348, Final residual = 3.05767e-09, No Iterations 3
DILUPBiCGStab:  Solving for H2O, Initial residual = 0.0033478, Final residual = 3.05772e-09, No Iterations 3
DILUPBiCGStab:  Solving for CH4, Initial residual = 0, Final residual = 0, No Iterations 0
DILUPBiCGStab:  Solving for CO2, Initial residual = 0.0033478, Final residual = 3.05772e-09, No Iterations 3
DILUPBiCGStab:  Solving for h, Initial residual = 0.0037919, Final residual = 3.12033e-09, No Iterations 3
min/max(T) = 299.765, 1044.97
GAMGPCG:  Solving for p_rgh, Initial residual = 0.0190178, Final residual = 7.65973e-07, No Iterations 4
diagonal:  Solving for rho, Initial residual = 0, Final residual = 0, No Iterations 0
time step continuity errors : sum local = 4.27613e-08, global = -9.03283e-10, cumulative = -2.25723e-07
GAMGPCG:  Solving for p_rgh, Initial residual = 0.00282046, Final residual = 2.55265e-07, No Iterations 4
diagonal:  Solving for rho, Initial residual = 0, Final residual = 0, No Iterations 0
time step continuity errors : sum local = 1.35532e-08, global = 2.11745e-09, cumulative = -2.23606e-07
DILUPBiCGStab:  Solving for omega, Initial residual = 0.000147748, Final residual = 2.00257e-09, No Iterations 2
DILUPBiCGStab:  Solving for k, Initial residual = 0.00607057, Final residual = 3.83075e-09, No Iterations 3

ExecutionTime = 4.51 s  ClockTime = 4 s

    Overall     = 0.00147806, 0.01
Time = 284

diagonal:  Solving for rho, Initial residual = 0, Final residual = 0, No Iterations 0

Execution time for mesh.update() = 0 s

DILUPBiCGStab:  Solving for Ux, Initial residual = 0.00580774, Final residual = 7.27817e-09, No Iterations 3
DILUPBiCGStab:  Solving for Uy, Initial residual = 0.00802607, Final residual = 8.79904e-09, No Iterations 3
DILUPBiCGStab:  Solving for O2, Initial residual = 0.00336017, Final residual = 2.83918e-09, No Iterations 3
DILUPBiCGStab:  Solving for H2O, Initial residual = 0.00336036, Final residual = 2.83916e-09, No Iterations 3
DILUPBiCGStab:  Solving for CH4, Initial residual = 0, Final residual = 0, No Iterations 0
DILUPBiCGStab:  Solving for CO2, Initial residual = 0.00336036, Final residual = 2.83916e-09, No Iterations 3
DILUPBiCGStab:  Solving for h, Initial residual = 0.00381064, Final residual = 2.65133e-09, No Iterations 3
min/max(T) = 299.529, 1044.97
GAMGPCG:  Solving for p_rgh, Initial residual = 0.0189062, Final residual = 7.85313e-07, No Iterations 4
diagonal:  Solving for rho, Initial residual = 0, Final residual = 0, No Iterations 0
time step continuity errors : sum local = 4.39304e-08, global = 6.18738e-10, cumulative = -2.22987e-07
GAMGPCG:  Solving for p_rgh, Initial residual = 0.00276123, Final residual = 2.83944e-07, No Iterations 4
diagonal:  Solving for rho, Initial residual = 0, Final residual = 0, No Iterations 0
time step continuity errors : sum local = 1.51137e-08, global = 1.59358e-09, cumulative = -2.21393e-07
DILUPBiCGStab:  Solving for omega, Initial residual = 0.000146201, Final residual = 1.92351e-09, No Iterations 2
bounding omega, min: -0.0843132 max: 15705.4 average: 297.285
DILUPBiCGStab:  Solving for k, Initial residual = 0.00608732, Final residual = 3.31167e-09, No Iterations 3

ExecutionTime = 4.63 s  ClockTime = 5 s

    Overall     = 0.00145623, 0.01
Time = 285

diagonal:  Solving for rho, Initial residual = 0, Final residual = 0, No Iterations 0

Execution time for mesh.update() = 0 s

DILUPBiCGStab:  Solving for Ux, Initial residual = 0.00581193, Final residual = 6.36505e-09, No Iterations 3
DILUPBiCGStab:  Solving for Uy, Initial residual = 0.00800895, Final residual = 8.84167e-09, No Iterations 3
DILUPBiCGStab:  Solving for O2, Initial residual = 0.00336767, Final residual = 2.69615e-09, No Iterations 3
DILUPBiCGStab:  Solving for H2O, Initial residual = 0.00336808, Final residual = 2.69613e-09, No Iterations 3
DILUPBiCGStab:  Solving for CH4, Initial residual = 0, Final residual = 0, No Iterations 0
DILUPBiCGStab:  Solving for CO2, Initial residual = 0.00336808, Final residual = 2.69613e-09, No Iterations 3
DILUPBiCGStab:  Solving for h, Initial residual = 0.00381968, Final residual = 2.63937e-09, No Iterations 3
min/max(T) = 299.383, 1044.97
GAMGPCG:  Solving for p_rgh, Initial residual = 0.0192428, Final residual = 8.00369e-07, No Iterations 4
diagonal:  Solving for rho, Initial residual = 0, Final residual = 0, No Iterations 0
time step continuity errors : sum local = 4.46524e-08, global = 1.05484e-09, cumulative = -2.20339e-07
GAMGPCG:  Solving for p_rgh, Initial residual = 0.00279129, Final residual = 3.203e-07, No Iterations 4
diagonal:  Solving for rho, Initial residual = 0, Final residual = 0, No Iterations 0
time step continuity errors : sum local = 1.6908e-08, global = 1.83354e-09, cumulative = -2.18505e-07
DILUPBiCGStab:  Solving for omega, Initial residual = 0.000145122, Final residual = 1.81303e-09, No Iterations 2
DILUPBiCGStab:  Solving for k, Initial residual = 0.00609026, Final residual = 2.77887e-09, No Iterations 3

ExecutionTime = 4.74 s  ClockTime = 5 s

    Overall     = 0.00145623, 0.01
Time = 286

diagonal:  Solving for rho, Initial residual = 0, Final residual = 0, No Iterations 0

Execution time for mesh.update() = 0 s

DILUPBiCGStab:  Solving for Ux, Initial residual = 0.00582753, Final residual = 6.0105e-09, No Iterations 3
DILUPBiCGStab:  Solving for Uy, Initial residual = 0.00796375, Final residual = 8.39552e-09, No Iterations 3
DILUPBiCGStab:  Solving for O2, Initial residual = 0.00338216, Final residual = 2.63929e-09, No Iterations 3
DILUPBiCGStab:  Solving for H2O, Initial residual = 0.00338172, Final residual = 2.63927e-09, No Iterations 3
DILUPBiCGStab:  Solving for CH4, Initial residual = 0, Final residual = 0, No Iterations 0
DILUPBiCGStab:  Solving for CO2, Initial residual = 0.00338172, Final residual = 2.63927e-09, No Iterations 3
DILUPBiCGStab:  Solving for h, Initial residual = 0.00383787, Final residual = 2.61246e-09, No Iterations 3
min/max(T) = 299.768, 1044.97
GAMGPCG:  Solving for p_rgh, Initial residual = 0.0192922, Final residual = 8.26494e-07, No Iterations 4
diagonal:  Solving for rho, Initial residual = 0, Final residual = 0, No Iterations 0
time step continuity errors : sum local = 4.62918e-08, global = 1.54997e-09, cumulative = -2.16955e-07
GAMGPCG:  Solving for p_rgh, Initial residual = 0.00281417, Final residual = 3.0433e-07, No Iterations 4
diagonal:  Solving for rho, Initial residual = 0, Final residual = 0, No Iterations 0
time step continuity errors : sum local = 1.63186e-08, global = 1.46058e-09, cumulative = -2.15494e-07
DILUPBiCGStab:  Solving for omega, Initial residual = 0.000146721, Final residual = 1.7215e-09, No Iterations 2
DILUPBiCGStab:  Solving for k, Initial residual = 0.00608906, Final residual = 2.53026e-09, No Iterations 3

ExecutionTime = 4.86 s  ClockTime = 5 s

    Overall     = 0.00145912, 0.01
Time = 287

diagonal:  Solving for rho, Initial residual = 0, Final residual = 0, No Iterations 0

Execution time for mesh.update() = 0 s

DILUPBiCGStab:  Solving for Ux, Initial residual = 0.00584076, Final residual = 5.51535e-09, No Iterations 3
DILUPBiCGStab:  Solving for Uy, Initial residual = 0.00796371, Final residual = 7.73999e-09, No Iterations 3
DILUPBiCGStab:  Solving for O2, Initial residual = 0.00339755, Final residual = 2.58735e-09, No Iterations 3
DILUPBiCGStab:  Solving for H2O, Initial residual = 0.00339774, Final residual = 2.58733e-09, No Iterations 3
DILUPBiCGStab:  Solving for CH4, Initial residual = 0, Final residual = 0, No Iterations 0
DILUPBiCGStab:  Solving for CO2, Initial residual = 0.00339774, Final residual = 2.58733e-09, No Iterations 3
DILUPBiCGStab:  Solving for h, Initial residual = 0.00385818, Final residual = 2.74537e-09, No Iterations 3
min/max(T) = 299.406, 1044.97
GAMGPCG:  Solving for p_rgh, Initial residual = 0.0197404, Final residual = 7.85512e-07, No Iterations 4
diagonal:  Solving for rho, Initial residual = 0, Final residual = 0, No Iterations 0
time step continuity errors : sum local = 4.3784e-08, global = 2.65141e-09, cumulative = -2.12843e-07
GAMGPCG:  Solving for p_rgh, Initial residual = 0.00286083, Final residual = 3.24628e-07, No Iterations 4
diagonal:  Solving for rho, Initial residual = 0, Final residual = 0, No Iterations 0
time step continuity errors : sum local = 1.73249e-08, global = 1.57426e-09, cumulative = -2.11269e-07
DILUPBiCGStab:  Solving for omega, Initial residual = 0.000145334, Final residual = 1.7291e-09, No Iterations 2
bounding omega, min: -1.96098 max: 15705 average: 297.339
DILUPBiCGStab:  Solving for k, Initial residual = 0.00609676, Final residual = 2.5432e-09, No Iterations 3

ExecutionTime = 4.97 s  ClockTime = 5 s

    Overall     = 0.00143803, 0.01
Time = 288

diagonal:  Solving for rho, Initial residual = 0, Final residual = 0, No Iterations 0

Execution time for mesh.update() = 0 s

DILUPBiCGStab:  Solving for Ux, Initial residual = 0.00583064, Final residual = 5.04707e-09, No Iterations 3
DILUPBiCGStab:  Solving for Uy, Initial residual = 0.00793566, Final residual = 7.52731e-09, No Iterations 3
DILUPBiCGStab:  Solving for O2, Initial residual = 0.00338608, Final residual = 2.55119e-09, No Iterations 3
DILUPBiCGStab:  Solving for H2O, Initial residual = 0.0033863, Final residual = 2.55116e-09, No Iterations 3
DILUPBiCGStab:  Solving for CH4, Initial residual = 0, Final residual = 0, No Iterations 0
DILUPBiCGStab:  Solving for CO2, Initial residual = 0.0033863, Final residual = 2.55116e-09, No Iterations 3
DILUPBiCGStab:  Solving for h, Initial residual = 0.00384311, Final residual = 2.77083e-09, No Iterations 3
min/max(T) = 299.376, 1044.97
GAMGPCG:  Solving for p_rgh, Initial residual = 0.0195235, Final residual = 7.89774e-07, No Iterations 4
diagonal:  Solving for rho, Initial residual = 0, Final residual = 0, No Iterations 0
time step continuity errors : sum local = 4.46696e-08, global = 3.81487e-09, cumulative = -2.07454e-07
GAMGPCG:  Solving for p_rgh, Initial residual = 0.00281624, Final residual = 3.45467e-07, No Iterations 4
diagonal:  Solving for rho, Initial residual = 0, Final residual = 0, No Iterations 0
time step continuity errors : sum local = 1.85281e-08, global = 9.98453e-10, cumulative = -2.06455e-07
DILUPBiCGStab:  Solving for omega, Initial residual = 0.000143183, Final residual = 1.64902e-09, No Iterations 2
DILUPBiCGStab:  Solving for k, Initial residual = 0.00610565, Final residual = 2.57679e-09, No Iterations 3

ExecutionTime = 5.09 s  ClockTime = 5 s

    Overall     = 0.00143417, 0.01
Time = 289

diagonal:  Solving for rho, Initial residual = 0, Final residual = 0, No Iterations 0

Execution time for mesh.update() = 0 s

DILUPBiCGStab:  Solving for Ux, Initial residual = 0.00584191, Final residual = 4.95397e-09, No Iterations 3
DILUPBiCGStab:  Solving for Uy, Initial residual = 0.00794239, Final residual = 7.56813e-09, No Iterations 3
DILUPBiCGStab:  Solving for O2, Initial residual = 0.00340066, Final residual = 2.67089e-09, No Iterations 3
DILUPBiCGStab:  Solving for H2O, Initial residual = 0.00340004, Final residual = 2.67098e-09, No Iterations 3
DILUPBiCGStab:  Solving for CH4, Initial residual = 0, Final residual = 0, No Iterations 0
DILUPBiCGStab:  Solving for CO2, Initial residual = 0.00340004, Final residual = 2.67098e-09, No Iterations 3
DILUPBiCGStab:  Solving for h, Initial residual = 0.00386358, Final residual = 2.90525e-09, No Iterations 3
min/max(T) = 299.775, 1044.97
GAMGPCG:  Solving for p_rgh, Initial residual = 0.0198281, Final residual = 7.90402e-07, No Iterations 4
diagonal:  Solving for rho, Initial residual = 0, Final residual = 0, No Iterations 0
time step continuity errors : sum local = 4.43346e-08, global = 4.6362e-09, cumulative = -2.01819e-07
GAMGPCG:  Solving for p_rgh, Initial residual = 0.0029339, Final residual = 3.47e-07, No Iterations 4
diagonal:  Solving for rho, Initial residual = 0, Final residual = 0, No Iterations 0
time step continuity errors : sum local = 1.85949e-08, global = 1.32328e-09, cumulative = -2.00496e-07
DILUPBiCGStab:  Solving for omega, Initial residual = 0.000148869, Final residual = 1.67215e-09, No Iterations 2
DILUPBiCGStab:  Solving for k, Initial residual = 0.00611055, Final residual = 2.58386e-09, No Iterations 3

ExecutionTime = 5.21 s  ClockTime = 5 s

    Overall     = 0.00145323, 0.01
Time = 290

diagonal:  Solving for rho, Initial residual = 0, Final residual = 0, No Iterations 0

Execution time for mesh.update() = 0 s

DILUPBiCGStab:  Solving for Ux, Initial residual = 0.00583467, Final residual = 5.16137e-09, No Iterations 3
DILUPBiCGStab:  Solving for Uy, Initial residual = 0.00792046, Final residual = 8.05641e-09, No Iterations 3
GAMGPCG:  Solving for G, Initial residual = 0.193492, Final residual = 5.32495e-05, No Iterations 6
DILUPBiCGStab:  Solving for O2, Initial residual = 0.00342106, Final residual = 2.9208e-09, No Iterations 3
DILUPBiCGStab:  Solving for H2O, Initial residual = 0.00342122, Final residual = 2.92077e-09, No Iterations 3
DILUPBiCGStab:  Solving for CH4, Initial residual = 0, Final residual = 0, No Iterations 0
DILUPBiCGStab:  Solving for CO2, Initial residual = 0.00342122, Final residual = 2.92077e-09, No Iterations 3
DILUPBiCGStab:  Solving for h, Initial residual = 0.0038907, Final residual = 3.04604e-09, No Iterations 3
min/max(T) = 299.423, 1044.97
GAMGPCG:  Solving for p_rgh, Initial residual = 0.0195599, Final residual = 8.10709e-07, No Iterations 4
diagonal:  Solving for rho, Initial residual = 0, Final residual = 0, No Iterations 0
time step continuity errors : sum local = 4.52793e-08, global = 3.33597e-09, cumulative = -1.9716e-07
GAMGPCG:  Solving for p_rgh, Initial residual = 0.00285762, Final residual = 3.75861e-07, No Iterations 4
diagonal:  Solving for rho, Initial residual = 0, Final residual = 0, No Iterations 0
time step continuity errors : sum local = 2.01348e-08, global = 1.07301e-09, cumulative = -1.96087e-07
DILUPBiCGStab:  Solving for omega, Initial residual = 0.000147529, Final residual = 1.89614e-09, No Iterations 2
bounding omega, min: -2.49577 max: 15704.8 average: 297.413
DILUPBiCGStab:  Solving for k, Initial residual = 0.00608474, Final residual = 2.38132e-09, No Iterations 3

ExecutionTime = 5.46 s  ClockTime = 5 s

    Overall     = 0.00140645, 0.01
Time = 291

diagonal:  Solving for rho, Initial residual = 0, Final residual = 0, No Iterations 0

Execution time for mesh.update() = 0 s

DILUPBiCGStab:  Solving for Ux, Initial residual = 0.00582936, Final residual = 5.25598e-09, No Iterations 3
DILUPBiCGStab:  Solving for Uy, Initial residual = 0.00792212, Final residual = 7.54017e-09, No Iterations 3
DILUPBiCGStab:  Solving for O2, Initial residual = 0.00341534, Final residual = 3.04016e-09, No Iterations 3
DILUPBiCGStab:  Solving for H2O, Initial residual = 0.00341581, Final residual = 3.04018e-09, No Iterations 3
DILUPBiCGStab:  Solving for CH4, Initial residual = 0, Final residual = 0, No Iterations 0
DILUPBiCGStab:  Solving for CO2, Initial residual = 0.00341581, Final residual = 3.04018e-09, No Iterations 3
DILUPBiCGStab:  Solving for h, Initial residual = 0.00388124, Final residual = 3.11308e-09, No Iterations 3
min/max(T) = 299.386, 1044.97
GAMGPCG:  Solving for p_rgh, Initial residual = 0.02006, Final residual = 7.54183e-07, No Iterations 4
diagonal:  Solving for rho, Initial residual = 0, Final residual = 0, No Iterations 0
time step continuity errors : sum local = 4.22393e-08, global = 4.81342e-09, cumulative = -1.91274e-07
GAMGPCG:  Solving for p_rgh, Initial residual = 0.0029028, Final residual = 3.88357e-07, No Iterations 4
diagonal:  Solving for rho, Initial residual = 0, Final residual = 0, No Iterations 0
time step continuity errors : sum local = 2.0819e-08, global = 1.04382e-09, cumulative = -1.9023e-07
DILUPBiCGStab:  Solving for omega, Initial residual = 0.000142806, Final residual = 1.77588e-09, No Iterations 2
DILUPBiCGStab:  Solving for k, Initial residual = 0.00609732, Final residual = 2.43354e-09, No Iterations 3

ExecutionTime = 5.57 s  ClockTime = 5 s

    Overall     = 0.00141285, 0.01
Time = 292

diagonal:  Solving for rho, Initial residual = 0, Final residual = 0, No Iterations 0

Execution time for mesh.update() = 0 s

DILUPBiCGStab:  Solving for Ux, Initial residual = 0.00581242, Final residual = 5.50351e-09, No Iterations 3
DILUPBiCGStab:  Solving for Uy, Initial residual = 0.00784281, Final residual = 7.08758e-09, No Iterations 3
DILUPBiCGStab:  Solving for O2, Initial residual = 0.00341296, Final residual = 3.49807e-09, No Iterations 3
DILUPBiCGStab:  Solving for H2O, Initial residual = 0.00341254, Final residual = 3.49801e-09, No Iterations 3
DILUPBiCGStab:  Solving for CH4, Initial residual = 0, Final residual = 0, No Iterations 0
DILUPBiCGStab:  Solving for CO2, Initial residual = 0.00341254, Final residual = 3.49801e-09, No Iterations 3
DILUPBiCGStab:  Solving for h, Initial residual = 0.00388015, Final residual = 3.42457e-09, No Iterations 3
min/max(T) = 299.787, 1044.97
GAMGPCG:  Solving for p_rgh, Initial residual = 0.0193598, Final residual = 8.80963e-07, No Iterations 4
diagonal:  Solving for rho, Initial residual = 0, Final residual = 0, No Iterations 0
time step continuity errors : sum local = 4.88092e-08, global = 2.68073e-09, cumulative = -1.87549e-07
GAMGPCG:  Solving for p_rgh, Initial residual = 0.00286028, Final residual = 4.26993e-07, No Iterations 4
diagonal:  Solving for rho, Initial residual = 0, Final residual = 0, No Iterations 0
[...]

Execution time for mesh.update() = 0 s

DILUPBiCGStab:  Solving for Ux, Initial residual = 0.00565331, Final residual = 8.4173e-09, No Iterations 3
DILUPBiCGStab:  Solving for Uy, Initial residual = 0.00465247, Final residual = 9.83162e-10, No Iterations 3
GAMGPCG:  Solving for G, Initial residual = 0.247997, Final residual = 2.93381e-05, No Iterations 6
DILUPBiCGStab:  Solving for O2, Initial residual = 0.0017382, Final residual = 3.28934e-09, No Iterations 3
DILUPBiCGStab:  Solving for H2O, Initial residual = 0.0017382, Final residual = 3.28934e-09, No Iterations 3
DILUPBiCGStab:  Solving for CH4, Initial residual = 0, Final residual = 0, No Iterations 0
DILUPBiCGStab:  Solving for CO2, Initial residual = 0.0017382, Final residual = 3.28934e-09, No Iterations 3
DILUPBiCGStab:  Solving for h, Initial residual = 0.0019937, Final residual = 3.43983e-09, No Iterations 3
min/max(T) = 300, 1044.97
GAMGPCG:  Solving for p_rgh, Initial residual = 0.0193768, Final residual = 1.31738e-07, No Iterations 5
diagonal:  Solving for rho, Initial residual = 0, Final residual = 0, No Iterations 0
time step continuity errors : sum local = 5.32097e-09, global = 5.5013e-10, cumulative = 1.7327e-06
GAMGPCG:  Solving for p_rgh, Initial residual = 0.00346665, Final residual = 3.02004e-07, No Iterations 4
diagonal:  Solving for rho, Initial residual = 0, Final residual = 0, No Iterations 0
time step continuity errors : sum local = 1.13526e-08, global = 6.34796e-11, cumulative = 1.73277e-06
DILUPBiCGStab:  Solving for omega, Initial residual = 9.13151e-05, Final residual = 1.72262e-09, No Iterations 2
DILUPBiCGStab:  Solving for k, Initial residual = 0.00375929, Final residual = 7.46961e-09, No Iterations 3

ExecutionTime = 292.37 s  ClockTime = 292 s

    Overall     = 0.00125964, 0.01
Time = 2491

diagonal:  Solving for rho, Initial residual = 0, Final residual = 0, No Iterations 0

Execution time for mesh.update() = 0 s

DILUPBiCGStab:  Solving for Ux, Initial residual = 0.00569782, Final residual = 9.7871e-09, No Iterations 3
DILUPBiCGStab:  Solving for Uy, Initial residual = 0.00465176, Final residual = 9.41198e-09, No Iterations 3
DILUPBiCGStab:  Solving for O2, Initial residual = 0.00172608, Final residual = 3.11411e-09, No Iterations 3
DILUPBiCGStab:  Solving for H2O, Initial residual = 0.00172608, Final residual = 3.11411e-09, No Iterations 3
DILUPBiCGStab:  Solving for CH4, Initial residual = 0, Final residual = 0, No Iterations 0
DILUPBiCGStab:  Solving for CO2, Initial residual = 0.00172608, Final residual = 3.11411e-09, No Iterations 3
DILUPBiCGStab:  Solving for h, Initial residual = 0.0019809, Final residual = 3.22636e-09, No Iterations 3
min/max(T) = 300, 1044.97
GAMGPCG:  Solving for p_rgh, Initial residual = 0.0198318, Final residual = 1.4336e-07, No Iterations 5
diagonal:  Solving for rho, Initial residual = 0, Final residual = 0, No Iterations 0
time step continuity errors : sum local = 5.7855e-09, global = 3.67289e-10, cumulative = 1.73313e-06
GAMGPCG:  Solving for p_rgh, Initial residual = 0.00357594, Final residual = 3.02953e-07, No Iterations 4
diagonal:  Solving for rho, Initial residual = 0, Final residual = 0, No Iterations 0
time step continuity errors : sum local = 1.14045e-08, global = 3.33276e-10, cumulative = 1.73347e-06
DILUPBiCGStab:  Solving for omega, Initial residual = 9.14506e-05, Final residual = 1.66596e-09, No Iterations 2
DILUPBiCGStab:  Solving for k, Initial residual = 0.00375236, Final residual = 4.72576e-09, No Iterations 3

ExecutionTime = 292.49 s  ClockTime = 292 s

    Overall     = 0.00125517, 0.01
Time = 2492

diagonal:  Solving for rho, Initial residual = 0, Final residual = 0, No Iterations 0

Execution time for mesh.update() = 0 s

DILUPBiCGStab:  Solving for Ux, Initial residual = 0.0057711, Final residual = 8.8353e-10, No Iterations 3
DILUPBiCGStab:  Solving for Uy, Initial residual = 0.00467932, Final residual = 8.44986e-09, No Iterations 3
DILUPBiCGStab:  Solving for O2, Initial residual = 0.00172205, Final residual = 2.81191e-09, No Iterations 3
DILUPBiCGStab:  Solving for H2O, Initial residual = 0.00172204, Final residual = 2.81191e-09, No Iterations 3
DILUPBiCGStab:  Solving for CH4, Initial residual = 0, Final residual = 0, No Iterations 0
DILUPBiCGStab:  Solving for CO2, Initial residual = 0.00172204, Final residual = 2.81191e-09, No Iterations 3
DILUPBiCGStab:  Solving for h, Initial residual = 0.00197516, Final residual = 2.93177e-09, No Iterations 3
min/max(T) = 300, 1044.97
GAMGPCG:  Solving for p_rgh, Initial residual = 0.0186315, Final residual = 9.21127e-07, No Iterations 4
diagonal:  Solving for rho, Initial residual = 0, Final residual = 0, No Iterations 0
time step continuity errors : sum local = 3.46344e-08, global = 2.31099e-09, cumulative = 1.73578e-06
GAMGPCG:  Solving for p_rgh, Initial residual = 0.00352655, Final residual = 3.17261e-07, No Iterations 4
diagonal:  Solving for rho, Initial residual = 0, Final residual = 0, No Iterations 0
time step continuity errors : sum local = 1.19364e-08, global = 1.46304e-10, cumulative = 1.73592e-06
DILUPBiCGStab:  Solving for omega, Initial residual = 8.85544e-05, Final residual = 1.75835e-09, No Iterations 2
DILUPBiCGStab:  Solving for k, Initial residual = 0.00368281, Final residual = 4.41398e-09, No Iterations 3

ExecutionTime = 292.6 s  ClockTime = 293 s

    Overall     = 0.0012568, 0.01
Time = 2493

diagonal:  Solving for rho, Initial residual = 0, Final residual = 0, No Iterations 0

Execution time for mesh.update() = 0 s

DILUPBiCGStab:  Solving for Ux, Initial residual = 0.00569591, Final residual = 8.88874e-10, No Iterations 3
DILUPBiCGStab:  Solving for Uy, Initial residual = 0.00459554, Final residual = 7.95605e-09, No Iterations 3
DILUPBiCGStab:  Solving for O2, Initial residual = 0.00171271, Final residual = 2.73025e-09, No Iterations 3
DILUPBiCGStab:  Solving for H2O, Initial residual = 0.00171271, Final residual = 2.73024e-09, No Iterations 3
DILUPBiCGStab:  Solving for CH4, Initial residual = 0, Final residual = 0, No Iterations 0
DILUPBiCGStab:  Solving for CO2, Initial residual = 0.00171271, Final residual = 2.73024e-09, No Iterations 3
DILUPBiCGStab:  Solving for h, Initial residual = 0.00196186, Final residual = 2.86474e-09, No Iterations 3
min/max(T) = 300, 1044.97
GAMGPCG:  Solving for p_rgh, Initial residual = 0.0187725, Final residual = 1.2306e-07, No Iterations 5
diagonal:  Solving for rho, Initial residual = 0, Final residual = 0, No Iterations 0
time step continuity errors : sum local = 4.91312e-09, global = 6.07478e-10, cumulative = 1.73653e-06
GAMGPCG:  Solving for p_rgh, Initial residual = 0.00350206, Final residual = 3.21923e-07, No Iterations 4
diagonal:  Solving for rho, Initial residual = 0, Final residual = 0, No Iterations 0
time step continuity errors : sum local = 1.21073e-08, global = 8.14147e-11, cumulative = 1.73661e-06
DILUPBiCGStab:  Solving for omega, Initial residual = 8.72869e-05, Final residual = 1.78548e-09, No Iterations 2
DILUPBiCGStab:  Solving for k, Initial residual = 0.00366725, Final residual = 3.68019e-09, No Iterations 3

ExecutionTime = 292.72 s  ClockTime = 293 s

    Overall     = 0.00125183, 0.01
Time = 2494

diagonal:  Solving for rho, Initial residual = 0, Final residual = 0, No Iterations 0

Execution time for mesh.update() = 0 s

DILUPBiCGStab:  Solving for Ux, Initial residual = 0.00564148, Final residual = 1.0833e-09, No Iterations 3
DILUPBiCGStab:  Solving for Uy, Initial residual = 0.00457015, Final residual = 8.3124e-09, No Iterations 3
DILUPBiCGStab:  Solving for O2, Initial residual = 0.00170657, Final residual = 2.63642e-09, No Iterations 3
DILUPBiCGStab:  Solving for H2O, Initial residual = 0.00170657, Final residual = 2.63642e-09, No Iterations 3
DILUPBiCGStab:  Solving for CH4, Initial residual = 0, Final residual = 0, No Iterations 0
DILUPBiCGStab:  Solving for CO2, Initial residual = 0.00170657, Final residual = 2.63642e-09, No Iterations 3
DILUPBiCGStab:  Solving for h, Initial residual = 0.00195574, Final residual = 2.75902e-09, No Iterations 3
min/max(T) = 300, 1044.97
GAMGPCG:  Solving for p_rgh, Initial residual = 0.0183181, Final residual = 9.7388e-07, No Iterations 4
diagonal:  Solving for rho, Initial residual = 0, Final residual = 0, No Iterations 0
time step continuity errors : sum local = 3.65229e-08, global = 1.03675e-09, cumulative = 1.73765e-06
GAMGPCG:  Solving for p_rgh, Initial residual = 0.00341897, Final residual = 3.16373e-07, No Iterations 4
diagonal:  Solving for rho, Initial residual = 0, Final residual = 0, No Iterations 0
time step continuity errors : sum local = 1.19364e-08, global = 5.05949e-10, cumulative = 1.73816e-06
DILUPBiCGStab:  Solving for omega, Initial residual = 8.76537e-05, Final residual = 1.76309e-09, No Iterations 2
DILUPBiCGStab:  Solving for k, Initial residual = 0.00367448, Final residual = 3.42371e-09, No Iterations 3

ExecutionTime = 292.84 s  ClockTime = 293 s

    Overall     = 0.00125302, 0.01
Time = 2495

diagonal:  Solving for rho, Initial residual = 0, Final residual = 0, No Iterations 0

Execution time for mesh.update() = 0 s

DILUPBiCGStab:  Solving for Ux, Initial residual = 0.00565229, Final residual = 1.22671e-09, No Iterations 3
DILUPBiCGStab:  Solving for Uy, Initial residual = 0.00452776, Final residual = 8.56948e-09, No Iterations 3
DILUPBiCGStab:  Solving for O2, Initial residual = 0.00169543, Final residual = 2.53641e-09, No Iterations 3
DILUPBiCGStab:  Solving for H2O, Initial residual = 0.00169543, Final residual = 2.53641e-09, No Iterations 3
DILUPBiCGStab:  Solving for CH4, Initial residual = 0, Final residual = 0, No Iterations 0
DILUPBiCGStab:  Solving for CO2, Initial residual = 0.00169543, Final residual = 2.53641e-09, No Iterations 3
DILUPBiCGStab:  Solving for h, Initial residual = 0.00194175, Final residual = 2.67427e-09, No Iterations 3
min/max(T) = 300, 1044.97
GAMGPCG:  Solving for p_rgh, Initial residual = 0.0192168, Final residual = 1.48875e-07, No Iterations 5
diagonal:  Solving for rho, Initial residual = 0, Final residual = 0, No Iterations 0
time step continuity errors : sum local = 5.88658e-09, global = 4.99892e-10, cumulative = 1.73866e-06
GAMGPCG:  Solving for p_rgh, Initial residual = 0.00353138, Final residual = 2.99989e-07, No Iterations 4
diagonal:  Solving for rho, Initial residual = 0, Final residual = 0, No Iterations 0
time step continuity errors : sum local = 1.13062e-08, global = 9.8677e-11, cumulative = 1.73875e-06
DILUPBiCGStab:  Solving for omega, Initial residual = 8.72194e-05, Final residual = 1.80996e-09, No Iterations 2
DILUPBiCGStab:  Solving for k, Initial residual = 0.00368647, Final residual = 3.68161e-09, No Iterations 3

ExecutionTime = 292.96 s  ClockTime = 293 s

    Overall     = 0.00124835, 0.01
Time = 2496

diagonal:  Solving for rho, Initial residual = 0, Final residual = 0, No Iterations 0

Execution time for mesh.update() = 0 s

DILUPBiCGStab:  Solving for Ux, Initial residual = 0.00571448, Final residual = 9.6613e-10, No Iterations 3
DILUPBiCGStab:  Solving for Uy, Initial residual = 0.0045589, Final residual = 9.38852e-09, No Iterations 3
DILUPBiCGStab:  Solving for O2, Initial residual = 0.00169272, Final residual = 2.42063e-09, No Iterations 3
DILUPBiCGStab:  Solving for H2O, Initial residual = 0.00169272, Final residual = 2.42063e-09, No Iterations 3
DILUPBiCGStab:  Solving for CH4, Initial residual = 0, Final residual = 0, No Iterations 0
DILUPBiCGStab:  Solving for CO2, Initial residual = 0.00169272, Final residual = 2.42063e-09, No Iterations 3
DILUPBiCGStab:  Solving for h, Initial residual = 0.00193792, Final residual = 2.50992e-09, No Iterations 3
min/max(T) = 300, 1044.97
GAMGPCG:  Solving for p_rgh, Initial residual = 0.0183793, Final residual = 8.9636e-07, No Iterations 4
diagonal:  Solving for rho, Initial residual = 0, Final residual = 0, No Iterations 0
time step continuity errors : sum local = 3.38356e-08, global = 2.22675e-09, cumulative = 1.74098e-06
GAMGPCG:  Solving for p_rgh, Initial residual = 0.00348537, Final residual = 3.05243e-07, No Iterations 4
diagonal:  Solving for rho, Initial residual = 0, Final residual = 0, No Iterations 0
time step continuity errors : sum local = 1.15186e-08, global = 4.42626e-10, cumulative = 1.74142e-06
DILUPBiCGStab:  Solving for omega, Initial residual = 8.87107e-05, Final residual = 1.73469e-09, No Iterations 2
DILUPBiCGStab:  Solving for k, Initial residual = 0.00368738, Final residual = 5.41434e-09, No Iterations 3

ExecutionTime = 293.08 s  ClockTime = 293 s

    Overall     = 0.00124978, 0.01
Time = 2497

diagonal:  Solving for rho, Initial residual = 0, Final residual = 0, No Iterations 0

Execution time for mesh.update() = 0 s

DILUPBiCGStab:  Solving for Ux, Initial residual = 0.00567161, Final residual = 9.49493e-09, No Iterations 3
DILUPBiCGStab:  Solving for Uy, Initial residual = 0.00452678, Final residual = 9.64388e-09, No Iterations 3
DILUPBiCGStab:  Solving for O2, Initial residual = 0.00168578, Final residual = 2.51388e-09, No Iterations 3
DILUPBiCGStab:  Solving for H2O, Initial residual = 0.00168578, Final residual = 2.51388e-09, No Iterations 3
DILUPBiCGStab:  Solving for CH4, Initial residual = 0, Final residual = 0, No Iterations 0
DILUPBiCGStab:  Solving for CO2, Initial residual = 0.00168578, Final residual = 2.51388e-09, No Iterations 3
DILUPBiCGStab:  Solving for h, Initial residual = 0.0019282, Final residual = 2.56793e-09, No Iterations 3
min/max(T) = 300, 1044.97
GAMGPCG:  Solving for p_rgh, Initial residual = 0.0180998, Final residual = 8.59246e-07, No Iterations 4
diagonal:  Solving for rho, Initial residual = 0, Final residual = 0, No Iterations 0
time step continuity errors : sum local = 3.20817e-08, global = 1.64982e-09, cumulative = 1.74307e-06
GAMGPCG:  Solving for p_rgh, Initial residual = 0.00349441, Final residual = 3.03067e-07, No Iterations 4
diagonal:  Solving for rho, Initial residual = 0, Final residual = 0, No Iterations 0
time step continuity errors : sum local = 1.14302e-08, global = 1.11966e-09, cumulative = 1.74419e-06
DILUPBiCGStab:  Solving for omega, Initial residual = 8.84474e-05, Final residual = 1.7197e-09, No Iterations 2
DILUPBiCGStab:  Solving for k, Initial residual = 0.00365506, Final residual = 6.336e-09, No Iterations 3

ExecutionTime = 293.19 s  ClockTime = 293 s

    Overall     = 0.00124473, 0.01
Time = 2498

diagonal:  Solving for rho, Initial residual = 0, Final residual = 0, No Iterations 0

Execution time for mesh.update() = 0 s

DILUPBiCGStab:  Solving for Ux, Initial residual = 0.00561859, Final residual = 9.29726e-09, No Iterations 3
DILUPBiCGStab:  Solving for Uy, Initial residual = 0.00449354, Final residual = 9.94752e-09, No Iterations 3
DILUPBiCGStab:  Solving for O2, Initial residual = 0.00168876, Final residual = 3.09976e-09, No Iterations 3
DILUPBiCGStab:  Solving for H2O, Initial residual = 0.00168876, Final residual = 3.09976e-09, No Iterations 3
DILUPBiCGStab:  Solving for CH4, Initial residual = 0, Final residual = 0, No Iterations 0
DILUPBiCGStab:  Solving for CO2, Initial residual = 0.00168876, Final residual = 3.09976e-09, No Iterations 3
DILUPBiCGStab:  Solving for h, Initial residual = 0.00193121, Final residual = 3.03022e-09, No Iterations 3
min/max(T) = 300, 1044.97
GAMGPCG:  Solving for p_rgh, Initial residual = 0.0180917, Final residual = 8.75684e-07, No Iterations 4
diagonal:  Solving for rho, Initial residual = 0, Final residual = 0, No Iterations 0
time step continuity errors : sum local = 3.29839e-08, global = 1.4669e-09, cumulative = 1.74566e-06
GAMGPCG:  Solving for p_rgh, Initial residual = 0.00342573, Final residual = 2.88729e-07, No Iterations 4
diagonal:  Solving for rho, Initial residual = 0, Final residual = 0, No Iterations 0
time step continuity errors : sum local = 1.08862e-08, global = 7.47372e-10, cumulative = 1.74641e-06
DILUPBiCGStab:  Solving for omega, Initial residual = 8.71465e-05, Final residual = 1.718e-09, No Iterations 2
DILUPBiCGStab:  Solving for k, Initial residual = 0.00364055, Final residual = 5.49485e-09, No Iterations 3

ExecutionTime = 293.31 s  ClockTime = 293 s

    Overall     = 0.00124552, 0.01
Time = 2499

diagonal:  Solving for rho, Initial residual = 0, Final residual = 0, No Iterations 0

Execution time for mesh.update() = 0 s

DILUPBiCGStab:  Solving for Ux, Initial residual = 0.00563806, Final residual = 8.27845e-09, No Iterations 3
DILUPBiCGStab:  Solving for Uy, Initial residual = 0.0044808, Final residual = 9.74733e-09, No Iterations 3
DILUPBiCGStab:  Solving for O2, Initial residual = 0.00168255, Final residual = 2.83167e-09, No Iterations 3
DILUPBiCGStab:  Solving for H2O, Initial residual = 0.00168255, Final residual = 2.83167e-09, No Iterations 3
DILUPBiCGStab:  Solving for CH4, Initial residual = 0, Final residual = 0, No Iterations 0
DILUPBiCGStab:  Solving for CO2, Initial residual = 0.00168255, Final residual = 2.83167e-09, No Iterations 3
DILUPBiCGStab:  Solving for h, Initial residual = 0.00192195, Final residual = 2.87052e-09, No Iterations 3
min/max(T) = 300, 1044.97
GAMGPCG:  Solving for p_rgh, Initial residual = 0.0182074, Final residual = 8.22559e-07, No Iterations 4
diagonal:  Solving for rho, Initial residual = 0, Final residual = 0, No Iterations 0
time step continuity errors : sum local = 3.0871e-08, global = 9.27827e-10, cumulative = 1.74734e-06
GAMGPCG:  Solving for p_rgh, Initial residual = 0.00347317, Final residual = 2.86435e-07, No Iterations 4
diagonal:  Solving for rho, Initial residual = 0, Final residual = 0, No Iterations 0
time step continuity errors : sum local = 1.08321e-08, global = 1.18521e-09, cumulative = 1.74852e-06
DILUPBiCGStab:  Solving for omega, Initial residual = 8.81988e-05, Final residual = 1.68029e-09, No Iterations 2
DILUPBiCGStab:  Solving for k, Initial residual = 0.00364457, Final residual = 5.95967e-09, No Iterations 3

ExecutionTime = 293.43 s  ClockTime = 293 s

    Overall     = 0.00123943, 0.01
Time = 2500

diagonal:  Solving for rho, Initial residual = 0, Final residual = 0, No Iterations 0

Execution time for mesh.update() = 0 s

DILUPBiCGStab:  Solving for Ux, Initial residual = 0.00567598, Final residual = 7.55958e-09, No Iterations 3
DILUPBiCGStab:  Solving for Uy, Initial residual = 0.00455119, Final residual = 9.42074e-09, No Iterations 3
GAMGPCG:  Solving for G, Initial residual = 0.214025, Final residual = 2.91742e-05, No Iterations 6
DILUPBiCGStab:  Solving for O2, Initial residual = 0.00169262, Final residual = 3.47326e-09, No Iterations 3
DILUPBiCGStab:  Solving for H2O, Initial residual = 0.00169261, Final residual = 3.47326e-09, No Iterations 3
DILUPBiCGStab:  Solving for CH4, Initial residual = 0, Final residual = 0, No Iterations 0
DILUPBiCGStab:  Solving for CO2, Initial residual = 0.00169261, Final residual = 3.47326e-09, No Iterations 3
DILUPBiCGStab:  Solving for h, Initial residual = 0.00193518, Final residual = 4.35438e-09, No Iterations 3
min/max(T) = 300, 1044.97
GAMGPCG:  Solving for p_rgh, Initial residual = 0.0186817, Final residual = 8.88403e-07, No Iterations 4
diagonal:  Solving for rho, Initial residual = 0, Final residual = 0, No Iterations 0
time step continuity errors : sum local = 3.29739e-08, global = -2.51331e-09, cumulative = 1.74601e-06
GAMGPCG:  Solving for p_rgh, Initial residual = 0.00350537, Final residual = 2.78833e-07, No Iterations 4
diagonal:  Solving for rho, Initial residual = 0, Final residual = 0, No Iterations 0
time step continuity errors : sum local = 1.05215e-08, global = 1.63308e-09, cumulative = 1.74764e-06
DILUPBiCGStab:  Solving for omega, Initial residual = 9.03456e-05, Final residual = 1.60965e-09, No Iterations 2
DILUPBiCGStab:  Solving for k, Initial residual = 0.00365372, Final residual = 3.21585e-09, No Iterations 3

ExecutionTime = 293.68 s  ClockTime = 294 s


Patch Mean : 302.907
Patch Variance : 0.00241279
Patch Gradient : 0.203726
End
