/*---------------------------------------------------------------------------*\
  =========                 |
  \\      /  F ield         | OpenFOAM: The Open Source CFD Toolbox
   \\    /   O peration     | Website:  https://openfoam.org
    \\  /    A nd           | Version:  dev
     \\/     M anipulation  |
\*---------------------------------------------------------------------------*/
Build  : dev-cabe48fb62c1
Exec   : fireDyMFoam
Date   : Apr 15 2019
Time   : 11:24:39
Host   : "Host"
PID    : 28491
I/O    : uncollated
Case   : /home/tesla/OpenFOAM/tesla-dev/run/rollerOpt_COBYLA_NEW
nProcs : 1
sigFpe : Enabling floating point exception trapping (FOAM_SIGFPE).
fileModificationChecking : Monitoring run-time modified files using timeStampMaster (fileModificationSkew 10)
allowSystemOperations : Allowing user-supplied system call operations

// * * * * * * * * * * * * * * * * * * * * * * * * * * * * * * * * * * * * * //
Create time

--> FOAM Warning : 
    From function void* Foam::dlOpen(const Foam::fileName&, bool)
    in file POSIX.C at line 1268
    dlopen error : libgroovyBC.so: cannot open shared object file: No such file or directory
--> FOAM Warning : 
    From function bool Foam::dlLibraryTable::open(const Foam::fileName&, bool)
    in file db/dynamicLibrary/dlLibraryTable/dlLibraryTable.C at line 105
    could not load "libgroovyBC.so"
Create mesh for time = 250

Selecting dynamicFvMesh dynamicRefineFvMesh
Detected 536 cells that are protected from refinement. Writing these to cellSet protectedCells.

PIMPLE: No convergence criteria found


PIMPLE: Operating solver in PISO mode


Initializing Solver

Selecting thermodynamics package 
{
    type            hePsiThermo;
    mixture         reactingMixture;
    transport       sutherland;
    thermo          janaf;
    energy          sensibleEnthalpy;
    equationOfState perfectGas;
    specie          specie;
}

Selecting chemistryReader foamChemistryReader
    elements not defined in "/home/tesla/OpenFOAM/tesla-dev/run/rollerOpt_COBYLA_NEW/constant/reactions"
Reading/calculating face flux field phi

No MRF models present

Selecting turbulence model type RAS
Selecting RAS turbulence model kOmegaSST
Selecting patchDistMethod meshWave
kOmegaSSTCoeffs
{
    delta           cubeRootVol;
    cubeRootVolCoeffs
    {
        deltaCoeff      1;
    }
    alphaK1         0.85;
    alphaK2         1;
    alphaOmega1     0.5;
    alphaOmega2     0.856;
    gamma1          0.555556;
    gamma2          0.44;
    beta1           0.075;
    beta2           0.0828;
    betaStar        0.09;
    a1              0.31;
    b1              1;
    c1              10;
    F3              false;
}

Selecting combustion model none<psiThermoCombustion>
--> FOAM Warning : 
    From function static Foam::autoPtr<T> Foam::combustionModel::New(typename CombustionModel::reactionThermo&, const Foam::compressibleTurbulenceModel&, const Foam::word&) [with CombustionModel = Foam::CombustionModel<Foam::psiReactionThermo>; typename CombustionModel::reactionThermo = Foam::psiReactionThermo]
    in file /home/tesla/OpenFOAM/OpenFOAM-dev/src/combustionModels/lnInclude/combustionModelTemplates.C at line 69
    Template parameters are no longer required when selecting a combustionModel. This information is now obtained directly from the thermodynamics. Actually selecting combustion model none.

Reading g

Reading hRef
Calculating field g.h


Reading pRef
Selecting radiationModel P1
Selecting absorptionEmissionModel greyMeanAbsorptionEmission
Selecting scatterModel none
Selecting sootModel none
Creating finite volume options from "system/fvOptions"

No finite volume options present
Using LTS

Starting time loop

Using dynamicCode for functionObject patchCalcs at line 64 in "/home/tesla/OpenFOAM/tesla-dev/run/rollerOpt_COBYLA_NEW/system/controlDict.functions.patchCalcs"
    Overall     = 0.00153152, 0.01
Time = 251

diagonal:  Solving for rho, Initial residual = 0, Final residual = 0, No Iterations 0

Execution time for mesh.update() = 0 s

DILUPBiCGStab:  Solving for Ux, Initial residual = 0.00480004, Final residual = 6.53866e-09, No Iterations 3
DILUPBiCGStab:  Solving for Uy, Initial residual = 0.00853878, Final residual = 1.38498e-09, No Iterations 3
GAMGPCG:  Solving for G, Initial residual = 0.0275258, Final residual = 9.48941e-05, No Iterations 4
DILUPBiCGStab:  Solving for O2, Initial residual = 0.00394165, Final residual = 4.34696e-09, No Iterations 3
DILUPBiCGStab:  Solving for H2O, Initial residual = 0.00394158, Final residual = 4.34688e-09, No Iterations 3
DILUPBiCGStab:  Solving for CH4, Initial residual = 0, Final residual = 0, No Iterations 0
DILUPBiCGStab:  Solving for CO2, Initial residual = 0.00394158, Final residual = 4.34687e-09, No Iterations 3
DILUPBiCGStab:  Solving for h, Initial residual = 0.00441252, Final residual = 4.39141e-09, No Iterations 3
min/max(T) = 299.994, 1044.97
GAMGPCG:  Solving for p_rgh, Initial residual = 0.0256192, Final residual = 1.78428e-07, No Iterations 5
diagonal:  Solving for rho, Initial residual = 0, Final residual = 0, No Iterations 0
time step continuity errors : sum local = 2.46052e-06, global = -1.4728e-07, cumulative = -1.4728e-07
GAMGPCG:  Solving for p_rgh, Initial residual = 0.00426682, Final residual = 2.70051e-07, No Iterations 4
diagonal:  Solving for rho, Initial residual = 0, Final residual = 0, No Iterations 0
time step continuity errors : sum local = 2.46055e-06, global = -1.48292e-07, cumulative = -2.95572e-07
DILUPBiCGStab:  Solving for omega, Initial residual = 0.000108737, Final residual = 1.96448e-09, No Iterations 2
DILUPBiCGStab:  Solving for k, Initial residual = 0.00503801, Final residual = 2.58056e-09, No Iterations 3

ExecutionTime = 0.37 s  ClockTime = 0 s

    Overall     = 0.00152793, 0.01
Time = 252

diagonal:  Solving for rho, Initial residual = 0, Final residual = 0, No Iterations 0

Execution time for mesh.update() = 0 s

DILUPBiCGStab:  Solving for Ux, Initial residual = 0.00477508, Final residual = 6.53526e-09, No Iterations 3
DILUPBiCGStab:  Solving for Uy, Initial residual = 0.00850894, Final residual = 1.21345e-09, No Iterations 3
DILUPBiCGStab:  Solving for O2, Initial residual = 0.00394178, Final residual = 3.1022e-09, No Iterations 3
DILUPBiCGStab:  Solving for H2O, Initial residual = 0.00394177, Final residual = 3.10225e-09, No Iterations 3
DILUPBiCGStab:  Solving for CH4, Initial residual = 0, Final residual = 0, No Iterations 0
DILUPBiCGStab:  Solving for CO2, Initial residual = 0.00394177, Final residual = 3.10225e-09, No Iterations 3
DILUPBiCGStab:  Solving for h, Initial residual = 0.00441623, Final residual = 2.93743e-09, No Iterations 3
min/max(T) = 299.99, 1044.97
GAMGPCG:  Solving for p_rgh, Initial residual = 0.0253947, Final residual = 2.00429e-07, No Iterations 5
diagonal:  Solving for rho, Initial residual = 0, Final residual = 0, No Iterations 0
time step continuity errors : sum local = 6.99802e-09, global = 1.01752e-09, cumulative = -2.94554e-07
GAMGPCG:  Solving for p_rgh, Initial residual = 0.00424482, Final residual = 2.45173e-07, No Iterations 4
diagonal:  Solving for rho, Initial residual = 0, Final residual = 0, No Iterations 0
time step continuity errors : sum local = 8.03849e-09, global = -3.20575e-10, cumulative = -2.94875e-07
DILUPBiCGStab:  Solving for omega, Initial residual = 0.00010802, Final residual = 1.8627e-09, No Iterations 2
DILUPBiCGStab:  Solving for k, Initial residual = 0.00501876, Final residual = 2.62238e-09, No Iterations 3

ExecutionTime = 0.49 s  ClockTime = 0 s

    Overall     = 0.00152825, 0.01
Time = 253

diagonal:  Solving for rho, Initial residual = 0, Final residual = 0, No Iterations 0

Execution time for mesh.update() = 0 s

DILUPBiCGStab:  Solving for Ux, Initial residual = 0.00473435, Final residual = 6.54501e-09, No Iterations 3
DILUPBiCGStab:  Solving for Uy, Initial residual = 0.00846444, Final residual = 1.0905e-09, No Iterations 3
DILUPBiCGStab:  Solving for O2, Initial residual = 0.00394509, Final residual = 2.78735e-09, No Iterations 3
DILUPBiCGStab:  Solving for H2O, Initial residual = 0.00394506, Final residual = 2.78733e-09, No Iterations 3
DILUPBiCGStab:  Solving for CH4, Initial residual = 0, Final residual = 0, No Iterations 0
DILUPBiCGStab:  Solving for CO2, Initial residual = 0.00394506, Final residual = 2.78734e-09, No Iterations 3
DILUPBiCGStab:  Solving for h, Initial residual = 0.00441383, Final residual = 2.52899e-09, No Iterations 3
min/max(T) = 299.998, 1044.97
GAMGPCG:  Solving for p_rgh, Initial residual = 0.0255377, Final residual = 1.78713e-07, No Iterations 5
diagonal:  Solving for rho, Initial residual = 0, Final residual = 0, No Iterations 0
time step continuity errors : sum local = 6.23313e-09, global = 8.66085e-10, cumulative = -2.94009e-07
GAMGPCG:  Solving for p_rgh, Initial residual = 0.00411954, Final residual = 2.85173e-07, No Iterations 4
diagonal:  Solving for rho, Initial residual = 0, Final residual = 0, No Iterations 0
time step continuity errors : sum local = 9.32876e-09, global = -6.37585e-10, cumulative = -2.94646e-07
DILUPBiCGStab:  Solving for omega, Initial residual = 0.000107915, Final residual = 1.67154e-09, No Iterations 2
DILUPBiCGStab:  Solving for k, Initial residual = 0.00500555, Final residual = 2.46761e-09, No Iterations 3

ExecutionTime = 0.6 s  ClockTime = 0 s

    Overall     = 0.00152413, 0.01
Time = 254

diagonal:  Solving for rho, Initial residual = 0, Final residual = 0, No Iterations 0

Execution time for mesh.update() = 0 s

DILUPBiCGStab:  Solving for Ux, Initial residual = 0.00470694, Final residual = 6.85595e-09, No Iterations 3
DILUPBiCGStab:  Solving for Uy, Initial residual = 0.00845035, Final residual = 1.02563e-09, No Iterations 3
DILUPBiCGStab:  Solving for O2, Initial residual = 0.00394276, Final residual = 3.13306e-09, No Iterations 3
DILUPBiCGStab:  Solving for H2O, Initial residual = 0.00394276, Final residual = 3.13305e-09, No Iterations 3
DILUPBiCGStab:  Solving for CH4, Initial residual = 0, Final residual = 0, No Iterations 0
DILUPBiCGStab:  Solving for CO2, Initial residual = 0.00394276, Final residual = 3.13306e-09, No Iterations 3
DILUPBiCGStab:  Solving for h, Initial residual = 0.00441361, Final residual = 3.0865e-09, No Iterations 3
min/max(T) = 299.993, 1044.97
GAMGPCG:  Solving for p_rgh, Initial residual = 0.0253124, Final residual = 1.73769e-07, No Iterations 5
diagonal:  Solving for rho, Initial residual = 0, Final residual = 0, No Iterations 0
time step continuity errors : sum local = 6.04465e-09, global = 6.73089e-10, cumulative = -2.93973e-07
GAMGPCG:  Solving for p_rgh, Initial residual = 0.00421903, Final residual = 2.57405e-07, No Iterations 4
diagonal:  Solving for rho, Initial residual = 0, Final residual = 0, No Iterations 0
time step continuity errors : sum local = 8.45286e-09, global = -7.94072e-10, cumulative = -2.94767e-07
DILUPBiCGStab:  Solving for omega, Initial residual = 0.000107204, Final residual = 1.62964e-09, No Iterations 2
DILUPBiCGStab:  Solving for k, Initial residual = 0.00495505, Final residual = 2.35673e-09, No Iterations 3

ExecutionTime = 0.72 s  ClockTime = 0 s

    Overall     = 0.00152342, 0.01
Time = 255

diagonal:  Solving for rho, Initial residual = 0, Final residual = 0, No Iterations 0

Execution time for mesh.update() = 0 s

DILUPBiCGStab:  Solving for Ux, Initial residual = 0.00470028, Final residual = 7.35919e-09, No Iterations 3
DILUPBiCGStab:  Solving for Uy, Initial residual = 0.00839802, Final residual = 1.11576e-09, No Iterations 3
DILUPBiCGStab:  Solving for O2, Initial residual = 0.00393806, Final residual = 3.16939e-09, No Iterations 3
DILUPBiCGStab:  Solving for H2O, Initial residual = 0.00393803, Final residual = 3.16938e-09, No Iterations 3
DILUPBiCGStab:  Solving for CH4, Initial residual = 0, Final residual = 0, No Iterations 0
DILUPBiCGStab:  Solving for CO2, Initial residual = 0.00393803, Final residual = 3.16938e-09, No Iterations 3
DILUPBiCGStab:  Solving for h, Initial residual = 0.00440553, Final residual = 3.01707e-09, No Iterations 3
min/max(T) = 300, 1044.97
GAMGPCG:  Solving for p_rgh, Initial residual = 0.0253903, Final residual = 1.71809e-07, No Iterations 5
diagonal:  Solving for rho, Initial residual = 0, Final residual = 0, No Iterations 0
time step continuity errors : sum local = 5.98189e-09, global = 8.76658e-10, cumulative = -2.93891e-07
GAMGPCG:  Solving for p_rgh, Initial residual = 0.00420453, Final residual = 2.98747e-07, No Iterations 4
diagonal:  Solving for rho, Initial residual = 0, Final residual = 0, No Iterations 0
time step continuity errors : sum local = 9.71362e-09, global = -4.77693e-10, cumulative = -2.94368e-07
DILUPBiCGStab:  Solving for omega, Initial residual = 0.000107469, Final residual = 1.59318e-09, No Iterations 2
DILUPBiCGStab:  Solving for k, Initial residual = 0.00494091, Final residual = 3.61283e-09, No Iterations 3

ExecutionTime = 0.84 s  ClockTime = 1 s

    Overall     = 0.00151864, 0.01
Time = 256

diagonal:  Solving for rho, Initial residual = 0, Final residual = 0, No Iterations 0

Execution time for mesh.update() = 0 s

DILUPBiCGStab:  Solving for Ux, Initial residual = 0.0046997, Final residual = 6.54801e-09, No Iterations 3
DILUPBiCGStab:  Solving for Uy, Initial residual = 0.00838431, Final residual = 1.26849e-09, No Iterations 3
DILUPBiCGStab:  Solving for O2, Initial residual = 0.00393824, Final residual = 3.22039e-09, No Iterations 3
DILUPBiCGStab:  Solving for H2O, Initial residual = 0.00393824, Final residual = 3.22039e-09, No Iterations 3
DILUPBiCGStab:  Solving for CH4, Initial residual = 0, Final residual = 0, No Iterations 0
DILUPBiCGStab:  Solving for CO2, Initial residual = 0.00393824, Final residual = 3.22039e-09, No Iterations 3
DILUPBiCGStab:  Solving for h, Initial residual = 0.00440921, Final residual = 2.98225e-09, No Iterations 3
min/max(T) = 299.999, 1044.97
GAMGPCG:  Solving for p_rgh, Initial residual = 0.0252938, Final residual = 1.73003e-07, No Iterations 5
diagonal:  Solving for rho, Initial residual = 0, Final residual = 0, No Iterations 0
time step continuity errors : sum local = 5.96271e-09, global = 7.63996e-10, cumulative = -2.93604e-07
GAMGPCG:  Solving for p_rgh, Initial residual = 0.00430662, Final residual = 3.09766e-07, No Iterations 4
diagonal:  Solving for rho, Initial residual = 0, Final residual = 0, No Iterations 0
time step continuity errors : sum local = 1.0012e-08, global = -3.06136e-10, cumulative = -2.9391e-07
DILUPBiCGStab:  Solving for omega, Initial residual = 0.000107993, Final residual = 1.5369e-09, No Iterations 2
DILUPBiCGStab:  Solving for k, Initial residual = 0.00490262, Final residual = 4.29344e-09, No Iterations 3

ExecutionTime = 0.96 s  ClockTime = 1 s

    Overall     = 0.00151913, 0.01
Time = 257

diagonal:  Solving for rho, Initial residual = 0, Final residual = 0, No Iterations 0

Execution time for mesh.update() = 0 s

DILUPBiCGStab:  Solving for Ux, Initial residual = 0.00469537, Final residual = 6.93828e-10, No Iterations 3
DILUPBiCGStab:  Solving for Uy, Initial residual = 0.00832104, Final residual = 1.13508e-09, No Iterations 3
DILUPBiCGStab:  Solving for O2, Initial residual = 0.00393072, Final residual = 3.32551e-09, No Iterations 3
DILUPBiCGStab:  Solving for H2O, Initial residual = 0.0039307, Final residual = 3.32561e-09, No Iterations 3
DILUPBiCGStab:  Solving for CH4, Initial residual = 0, Final residual = 0, No Iterations 0
DILUPBiCGStab:  Solving for CO2, Initial residual = 0.0039307, Final residual = 3.32561e-09, No Iterations 3
DILUPBiCGStab:  Solving for h, Initial residual = 0.00440326, Final residual = 3.12079e-09, No Iterations 3
min/max(T) = 300, 1044.97
GAMGPCG:  Solving for p_rgh, Initial residual = 0.0252095, Final residual = 1.89525e-07, No Iterations 5
diagonal:  Solving for rho, Initial residual = 0, Final residual = 0, No Iterations 0
time step continuity errors : sum local = 6.47337e-09, global = 8.16212e-10, cumulative = -2.93094e-07
GAMGPCG:  Solving for p_rgh, Initial residual = 0.00427025, Final residual = 3.36085e-07, No Iterations 4
diagonal:  Solving for rho, Initial residual = 0, Final residual = 0, No Iterations 0
time step continuity errors : sum local = 1.07725e-08, global = 3.92437e-10, cumulative = -2.92702e-07
DILUPBiCGStab:  Solving for omega, Initial residual = 0.000107929, Final residual = 1.52943e-09, No Iterations 2
DILUPBiCGStab:  Solving for k, Initial residual = 0.00488664, Final residual = 2.66343e-09, No Iterations 3

ExecutionTime = 1.07 s  ClockTime = 1 s

    Overall     = 0.00151683, 0.01
Time = 258

diagonal:  Solving for rho, Initial residual = 0, Final residual = 0, No Iterations 0

Execution time for mesh.update() = 0 s

DILUPBiCGStab:  Solving for Ux, Initial residual = 0.00469289, Final residual = 9.08887e-10, No Iterations 3
DILUPBiCGStab:  Solving for Uy, Initial residual = 0.00827131, Final residual = 9.57031e-09, No Iterations 3
DILUPBiCGStab:  Solving for O2, Initial residual = 0.0039303, Final residual = 2.96398e-09, No Iterations 3
DILUPBiCGStab:  Solving for H2O, Initial residual = 0.00393029, Final residual = 2.964e-09, No Iterations 3
DILUPBiCGStab:  Solving for CH4, Initial residual = 0, Final residual = 0, No Iterations 0
DILUPBiCGStab:  Solving for CO2, Initial residual = 0.00393029, Final residual = 2.964e-09, No Iterations 3
DILUPBiCGStab:  Solving for h, Initial residual = 0.0044008, Final residual = 2.56444e-09, No Iterations 3
min/max(T) = 300, 1044.97
GAMGPCG:  Solving for p_rgh, Initial residual = 0.0252048, Final residual = 1.81341e-07, No Iterations 5
diagonal:  Solving for rho, Initial residual = 0, Final residual = 0, No Iterations 0
time step continuity errors : sum local = 6.17577e-09, global = 5.84204e-10, cumulative = -2.92118e-07
GAMGPCG:  Solving for p_rgh, Initial residual = 0.00432439, Final residual = 3.06956e-07, No Iterations 4
diagonal:  Solving for rho, Initial residual = 0, Final residual = 0, No Iterations 0
time step continuity errors : sum local = 9.8216e-09, global = -4.22068e-11, cumulative = -2.9216e-07
DILUPBiCGStab:  Solving for omega, Initial residual = 0.000108139, Final residual = 1.69212e-09, No Iterations 2
DILUPBiCGStab:  Solving for k, Initial residual = 0.00485006, Final residual = 3.11573e-09, No Iterations 3

ExecutionTime = 1.19 s  ClockTime = 1 s

    Overall     = 0.00151937, 0.01
Time = 259

diagonal:  Solving for rho, Initial residual = 0, Final residual = 0, No Iterations 0

Execution time for mesh.update() = 0 s

DILUPBiCGStab:  Solving for Ux, Initial residual = 0.00467888, Final residual = 4.86759e-09, No Iterations 3
DILUPBiCGStab:  Solving for Uy, Initial residual = 0.00819987, Final residual = 9.00038e-09, No Iterations 3
DILUPBiCGStab:  Solving for O2, Initial residual = 0.00393379, Final residual = 2.90321e-09, No Iterations 3
DILUPBiCGStab:  Solving for H2O, Initial residual = 0.00393378, Final residual = 2.90324e-09, No Iterations 3
DILUPBiCGStab:  Solving for CH4, Initial residual = 0, Final residual = 0, No Iterations 0
DILUPBiCGStab:  Solving for CO2, Initial residual = 0.00393378, Final residual = 2.90324e-09, No Iterations 3
DILUPBiCGStab:  Solving for h, Initial residual = 0.00440675, Final residual = 2.43024e-09, No Iterations 3
min/max(T) = 300, 1044.97
GAMGPCG:  Solving for p_rgh, Initial residual = 0.0247492, Final residual = 1.87429e-07, No Iterations 5
diagonal:  Solving for rho, Initial residual = 0, Final residual = 0, No Iterations 0
time step continuity errors : sum local = 6.36174e-09, global = 8.45788e-10, cumulative = -2.91314e-07
GAMGPCG:  Solving for p_rgh, Initial residual = 0.00423897, Final residual = 2.93034e-07, No Iterations 4
diagonal:  Solving for rho, Initial residual = 0, Final residual = 0, No Iterations 0
time step continuity errors : sum local = 9.31819e-09, global = -7.43949e-12, cumulative = -2.91321e-07
DILUPBiCGStab:  Solving for omega, Initial residual = 0.000107476, Final residual = 1.70211e-09, No Iterations 2
DILUPBiCGStab:  Solving for k, Initial residual = 0.00481395, Final residual = 3.03298e-09, No Iterations 3

ExecutionTime = 1.31 s  ClockTime = 1 s

    Overall     = 0.00151896, 0.01
Time = 260

diagonal:  Solving for rho, Initial residual = 0, Final residual = 0, No Iterations 0

Execution time for mesh.update() = 0 s

DILUPBiCGStab:  Solving for Ux, Initial residual = 0.00466154, Final residual = 4.59302e-09, No Iterations 3
DILUPBiCGStab:  Solving for Uy, Initial residual = 0.00814717, Final residual = 8.31159e-09, No Iterations 3
GAMGPCG:  Solving for G, Initial residual = 0.121695, Final residual = 4.16991e-05, No Iterations 6
DILUPBiCGStab:  Solving for O2, Initial residual = 0.00392268, Final residual = 3.08312e-09, No Iterations 3
DILUPBiCGStab:  Solving for H2O, Initial residual = 0.00392267, Final residual = 3.08315e-09, No Iterations 3
DILUPBiCGStab:  Solving for CH4, Initial residual = 0, Final residual = 0, No Iterations 0
DILUPBiCGStab:  Solving for CO2, Initial residual = 0.00392268, Final residual = 3.08315e-09, No Iterations 3
DILUPBiCGStab:  Solving for h, Initial residual = 0.00439771, Final residual = 2.56806e-09, No Iterations 3
min/max(T) = 300, 1044.97
GAMGPCG:  Solving for p_rgh, Initial residual = 0.0248975, Final residual = 1.99205e-07, No Iterations 5
diagonal:  Solving for rho, Initial residual = 0, Final residual = 0, No Iterations 0
time step continuity errors : sum local = 6.69439e-09, global = 7.7004e-10, cumulative = -2.90551e-07
GAMGPCG:  Solving for p_rgh, Initial residual = 0.00417606, Final residual = 3.12891e-07, No Iterations 4
diagonal:  Solving for rho, Initial residual = 0, Final residual = 0, No Iterations 0
time step continuity errors : sum local = 9.67683e-09, global = 8.57164e-10, cumulative = -2.89694e-07
DILUPBiCGStab:  Solving for omega, Initial residual = 0.000106693, Final residual = 1.68926e-09, No Iterations 2
DILUPBiCGStab:  Solving for k, Initial residual = 0.0047962, Final residual = 2.41357e-09, No Iterations 3

ExecutionTime = 1.57 s  ClockTime = 1 s

    Overall     = 0.00152133, 0.01
Time = 261

diagonal:  Solving for rho, Initial residual = 0, Final residual = 0, No Iterations 0

Execution time for mesh.update() = 0 s

DILUPBiCGStab:  Solving for Ux, Initial residual = 0.00465539, Final residual = 5.1958e-09, No Iterations 3
DILUPBiCGStab:  Solving for Uy, Initial residual = 0.00810319, Final residual = 7.18852e-09, No Iterations 3
DILUPBiCGStab:  Solving for O2, Initial residual = 0.00391857, Final residual = 2.98137e-09, No Iterations 3
DILUPBiCGStab:  Solving for H2O, Initial residual = 0.00391857, Final residual = 2.98141e-09, No Iterations 3
DILUPBiCGStab:  Solving for CH4, Initial residual = 0, Final residual = 0, No Iterations 0
DILUPBiCGStab:  Solving for CO2, Initial residual = 0.00391857, Final residual = 2.98141e-09, No Iterations 3
DILUPBiCGStab:  Solving for h, Initial residual = 0.00439167, Final residual = 2.51558e-09, No Iterations 3
min/max(T) = 300, 1044.97
GAMGPCG:  Solving for p_rgh, Initial residual = 0.024754, Final residual = 1.83172e-07, No Iterations 5
diagonal:  Solving for rho, Initial residual = 0, Final residual = 0, No Iterations 0
time step continuity errors : sum local = 6.19546e-09, global = 7.77955e-10, cumulative = -2.88916e-07
GAMGPCG:  Solving for p_rgh, Initial residual = 0.00414088, Final residual = 2.88225e-07, No Iterations 4
diagonal:  Solving for rho, Initial residual = 0, Final residual = 0, No Iterations 0
time step continuity errors : sum local = 9.14129e-09, global = 2.67931e-10, cumulative = -2.88648e-07
DILUPBiCGStab:  Solving for omega, Initial residual = 0.000105961, Final residual = 1.3342e-09, No Iterations 2
DILUPBiCGStab:  Solving for k, Initial residual = 0.00476427, Final residual = 2.53021e-09, No Iterations 3

ExecutionTime = 1.69 s  ClockTime = 1 s

    Overall     = 0.00152022, 0.01
Time = 262

diagonal:  Solving for rho, Initial residual = 0, Final residual = 0, No Iterations 0

Execution time for mesh.update() = 0 s

DILUPBiCGStab:  Solving for Ux, Initial residual = 0.00463713, Final residual = 5.4067e-09, No Iterations 3
DILUPBiCGStab:  Solving for Uy, Initial residual = 0.00804368, Final residual = 6.64531e-09, No Iterations 3
DILUPBiCGStab:  Solving for O2, Initial residual = 0.00391307, Final residual = 3.14971e-09, No Iterations 3
DILUPBiCGStab:  Solving for H2O, Initial residual = 0.00391307, Final residual = 3.14976e-09, No Iterations 3
DILUPBiCGStab:  Solving for CH4, Initial residual = 0, Final residual = 0, No Iterations 0
DILUPBiCGStab:  Solving for CO2, Initial residual = 0.00391307, Final residual = 3.14976e-09, No Iterations 3
DILUPBiCGStab:  Solving for h, Initial residual = 0.00438254, Final residual = 2.62434e-09, No Iterations 3
min/max(T) = 300, 1044.97
GAMGPCG:  Solving for p_rgh, Initial residual = 0.0248268, Final residual = 1.78186e-07, No Iterations 5
diagonal:  Solving for rho, Initial residual = 0, Final residual = 0, No Iterations 0
time step continuity errors : sum local = 5.99581e-09, global = 5.99947e-10, cumulative = -2.88048e-07
GAMGPCG:  Solving for p_rgh, Initial residual = 0.00405324, Final residual = 2.95041e-07, No Iterations 4
diagonal:  Solving for rho, Initial residual = 0, Final residual = 0, No Iterations 0
time step continuity errors : sum local = 9.3433e-09, global = 1.70457e-10, cumulative = -2.87878e-07
DILUPBiCGStab:  Solving for omega, Initial residual = 0.000105603, Final residual = 1.14772e-09, No Iterations 2
DILUPBiCGStab:  Solving for k, Initial residual = 0.0047275, Final residual = 2.68132e-09, No Iterations 3

ExecutionTime = 1.81 s  ClockTime = 1 s

    Overall     = 0.00152011, 0.01
Time = 263

diagonal:  Solving for rho, Initial residual = 0, Final residual = 0, No Iterations 0

Execution time for mesh.update() = 0 s

DILUPBiCGStab:  Solving for Ux, Initial residual = 0.00464349, Final residual = 5.08374e-09, No Iterations 3
DILUPBiCGStab:  Solving for Uy, Initial residual = 0.00795981, Final residual = 6.10039e-09, No Iterations 3
DILUPBiCGStab:  Solving for O2, Initial residual = 0.00390713, Final residual = 3.46351e-09, No Iterations 3
DILUPBiCGStab:  Solving for H2O, Initial residual = 0.00390713, Final residual = 3.46355e-09, No Iterations 3
DILUPBiCGStab:  Solving for CH4, Initial residual = 0, Final residual = 0, No Iterations 0
DILUPBiCGStab:  Solving for CO2, Initial residual = 0.00390713, Final residual = 3.46355e-09, No Iterations 3
DILUPBiCGStab:  Solving for h, Initial residual = 0.00437558, Final residual = 2.89849e-09, No Iterations 3
min/max(T) = 300, 1044.97
GAMGPCG:  Solving for p_rgh, Initial residual = 0.0246025, Final residual = 1.75937e-07, No Iterations 5
diagonal:  Solving for rho, Initial residual = 0, Final residual = 0, No Iterations 0
time step continuity errors : sum local = 5.89749e-09, global = 7.53839e-10, cumulative = -2.87124e-07
GAMGPCG:  Solving for p_rgh, Initial residual = 0.00397083, Final residual = 3.19123e-07, No Iterations 4
diagonal:  Solving for rho, Initial residual = 0, Final residual = 0, No Iterations 0
time step continuity errors : sum local = 1.00968e-08, global = 2.93273e-10, cumulative = -2.86831e-07
DILUPBiCGStab:  Solving for omega, Initial residual = 0.000105257, Final residual = 1.09018e-09, No Iterations 2
DILUPBiCGStab:  Solving for k, Initial residual = 0.00470312, Final residual = 2.51568e-09, No Iterations 3

ExecutionTime = 1.93 s  ClockTime = 2 s

    Overall     = 0.00151732, 0.01
Time = 264

diagonal:  Solving for rho, Initial residual = 0, Final residual = 0, No Iterations 0

Execution time for mesh.update() = 0 s

DILUPBiCGStab:  Solving for Ux, Initial residual = 0.00464119, Final residual = 5.12254e-09, No Iterations 3
DILUPBiCGStab:  Solving for Uy, Initial residual = 0.00791275, Final residual = 5.61663e-09, No Iterations 3
DILUPBiCGStab:  Solving for O2, Initial residual = 0.0039095, Final residual = 3.27222e-09, No Iterations 3
DILUPBiCGStab:  Solving for H2O, Initial residual = 0.00390949, Final residual = 3.27224e-09, No Iterations 3
DILUPBiCGStab:  Solving for CH4, Initial residual = 0, Final residual = 0, No Iterations 0
DILUPBiCGStab:  Solving for CO2, Initial residual = 0.00390949, Final residual = 3.27224e-09, No Iterations 3
DILUPBiCGStab:  Solving for h, Initial residual = 0.0043827, Final residual = 2.59732e-09, No Iterations 3
min/max(T) = 300, 1044.97
GAMGPCG:  Solving for p_rgh, Initial residual = 0.0250066, Final residual = 1.77985e-07, No Iterations 5
diagonal:  Solving for rho, Initial residual = 0, Final residual = 0, No Iterations 0
time step continuity errors : sum local = 5.95423e-09, global = 6.40492e-10, cumulative = -2.8619e-07
GAMGPCG:  Solving for p_rgh, Initial residual = 0.00400693, Final residual = 3.35405e-07, No Iterations 4
diagonal:  Solving for rho, Initial residual = 0, Final residual = 0, No Iterations 0
time step continuity errors : sum local = 1.05263e-08, global = 5.31929e-10, cumulative = -2.85658e-07
DILUPBiCGStab:  Solving for omega, Initial residual = 0.000104965, Final residual = 1.00953e-09, No Iterations 2
DILUPBiCGStab:  Solving for k, Initial residual = 0.00467636, Final residual = 2.43723e-09, No Iterations 3

ExecutionTime = 2.05 s  ClockTime = 2 s

    Overall     = 0.0015179, 0.01
Time = 265

diagonal:  Solving for rho, Initial residual = 0, Final residual = 0, No Iterations 0

Execution time for mesh.update() = 0 s

DILUPBiCGStab:  Solving for Ux, Initial residual = 0.00463863, Final residual = 4.40861e-09, No Iterations 3
DILUPBiCGStab:  Solving for Uy, Initial residual = 0.00786362, Final residual = 5.54294e-09, No Iterations 3
DILUPBiCGStab:  Solving for O2, Initial residual = 0.00389866, Final residual = 3.1278e-09, No Iterations 3
DILUPBiCGStab:  Solving for H2O, Initial residual = 0.00389866, Final residual = 3.12781e-09, No Iterations 3
DILUPBiCGStab:  Solving for CH4, Initial residual = 0, Final residual = 0, No Iterations 0
DILUPBiCGStab:  Solving for CO2, Initial residual = 0.00389866, Final residual = 3.12781e-09, No Iterations 3
DILUPBiCGStab:  Solving for h, Initial residual = 0.00437282, Final residual = 2.40059e-09, No Iterations 3
min/max(T) = 300, 1044.97
GAMGPCG:  Solving for p_rgh, Initial residual = 0.0249112, Final residual = 1.73056e-07, No Iterations 5
diagonal:  Solving for rho, Initial residual = 0, Final residual = 0, No Iterations 0
time step continuity errors : sum local = 5.76483e-09, global = 4.08609e-10, cumulative = -2.8525e-07
GAMGPCG:  Solving for p_rgh, Initial residual = 0.00385755, Final residual = 3.94682e-07, No Iterations 4
diagonal:  Solving for rho, Initial residual = 0, Final residual = 0, No Iterations 0
time step continuity errors : sum local = 1.23173e-08, global = 4.76934e-10, cumulative = -2.84773e-07
DILUPBiCGStab:  Solving for omega, Initial residual = 0.000104387, Final residual = 1.00594e-09, No Iterations 2
DILUPBiCGStab:  Solving for k, Initial residual = 0.00465747, Final residual = 2.35527e-09, No Iterations 3

ExecutionTime = 2.16 s  ClockTime = 2 s

    Overall     = 0.00151841, 0.01
Time = 266

diagonal:  Solving for rho, Initial residual = 0, Final residual = 0, No Iterations 0

Execution time for mesh.update() = 0 s

DILUPBiCGStab:  Solving for Ux, Initial residual = 0.00462752, Final residual = 4.87255e-09, No Iterations 3
DILUPBiCGStab:  Solving for Uy, Initial residual = 0.00779778, Final residual = 5.71369e-09, No Iterations 3
DILUPBiCGStab:  Solving for O2, Initial residual = 0.00389088, Final residual = 3.4412e-09, No Iterations 3
DILUPBiCGStab:  Solving for H2O, Initial residual = 0.00389088, Final residual = 3.44121e-09, No Iterations 3
DILUPBiCGStab:  Solving for CH4, Initial residual = 0, Final residual = 0, No Iterations 0
DILUPBiCGStab:  Solving for CO2, Initial residual = 0.00389088, Final residual = 3.44121e-09, No Iterations 3
DILUPBiCGStab:  Solving for h, Initial residual = 0.00436068, Final residual = 2.76892e-09, No Iterations 3
min/max(T) = 300, 1044.97
GAMGPCG:  Solving for p_rgh, Initial residual = 0.0248358, Final residual = 1.97483e-07, No Iterations 5
diagonal:  Solving for rho, Initial residual = 0, Final residual = 0, No Iterations 0
time step continuity errors : sum local = 6.57061e-09, global = 4.3322e-10, cumulative = -2.8434e-07
GAMGPCG:  Solving for p_rgh, Initial residual = 0.00378259, Final residual = 4.12237e-07, No Iterations 4
diagonal:  Solving for rho, Initial residual = 0, Final residual = 0, No Iterations 0
time step continuity errors : sum local = 1.28766e-08, global = 6.64429e-10, cumulative = -2.83675e-07
DILUPBiCGStab:  Solving for omega, Initial residual = 0.000103573, Final residual = 9.77395e-10, No Iterations 2
DILUPBiCGStab:  Solving for k, Initial residual = 0.00463356, Final residual = 2.24958e-09, No Iterations 3

ExecutionTime = 2.28 s  ClockTime = 2 s

    Overall     = 0.00152137, 0.01
Time = 267

diagonal:  Solving for rho, Initial residual = 0, Final residual = 0, No Iterations 0

Execution time for mesh.update() = 0 s

DILUPBiCGStab:  Solving for Ux, Initial residual = 0.00460636, Final residual = 4.74916e-09, No Iterations 3
DILUPBiCGStab:  Solving for Uy, Initial residual = 0.00774261, Final residual = 5.8254e-09, No Iterations 3
DILUPBiCGStab:  Solving for O2, Initial residual = 0.0038893, Final residual = 3.31129e-09, No Iterations 3
DILUPBiCGStab:  Solving for H2O, Initial residual = 0.0038893, Final residual = 3.31129e-09, No Iterations 3
DILUPBiCGStab:  Solving for CH4, Initial residual = 0, Final residual = 0, No Iterations 0
DILUPBiCGStab:  Solving for CO2, Initial residual = 0.0038893, Final residual = 3.31129e-09, No Iterations 3
DILUPBiCGStab:  Solving for h, Initial residual = 0.00436159, Final residual = 2.64838e-09, No Iterations 3
min/max(T) = 300, 1044.97
GAMGPCG:  Solving for p_rgh, Initial residual = 0.0244693, Final residual = 1.80359e-07, No Iterations 5
diagonal:  Solving for rho, Initial residual = 0, Final residual = 0, No Iterations 0
time step continuity errors : sum local = 5.91087e-09, global = 6.13411e-10, cumulative = -2.83062e-07
GAMGPCG:  Solving for p_rgh, Initial residual = 0.00376029, Final residual = 4.75213e-07, No Iterations 4
diagonal:  Solving for rho, Initial residual = 0, Final residual = 0, No Iterations 0
time step continuity errors : sum local = 1.46785e-08, global = 5.29138e-10, cumulative = -2.82533e-07
DILUPBiCGStab:  Solving for omega, Initial residual = 0.000103102, Final residual = 9.54287e-10, No Iterations 2
DILUPBiCGStab:  Solving for k, Initial residual = 0.00460675, Final residual = 2.05566e-09, No Iterations 3

ExecutionTime = 2.4 s  ClockTime = 2 s

    Overall     = 0.00152275, 0.01
Time = 268

diagonal:  Solving for rho, Initial residual = 0, Final residual = 0, No Iterations 0

Execution time for mesh.update() = 0 s

DILUPBiCGStab:  Solving for Ux, Initial residual = 0.00457106, Final residual = 4.98254e-09, No Iterations 3
DILUPBiCGStab:  Solving for Uy, Initial residual = 0.0076862, Final residual = 6.21256e-09, No Iterations 3
DILUPBiCGStab:  Solving for O2, Initial residual = 0.00387902, Final residual = 3.52676e-09, No Iterations 3
DILUPBiCGStab:  Solving for H2O, Initial residual = 0.00387902, Final residual = 3.52677e-09, No Iterations 3
DILUPBiCGStab:  Solving for CH4, Initial residual = 0, Final residual = 0, No Iterations 0
DILUPBiCGStab:  Solving for CO2, Initial residual = 0.00387902, Final residual = 3.52677e-09, No Iterations 3
DILUPBiCGStab:  Solving for h, Initial residual = 0.00434813, Final residual = 2.99899e-09, No Iterations 3
min/max(T) = 300, 1044.97
GAMGPCG:  Solving for p_rgh, Initial residual = 0.0240345, Final residual = 2.08809e-07, No Iterations 5
diagonal:  Solving for rho, Initial residual = 0, Final residual = 0, No Iterations 0
time step continuity errors : sum local = 6.84641e-09, global = 4.21433e-10, cumulative = -2.82111e-07
GAMGPCG:  Solving for p_rgh, Initial residual = 0.00360258, Final residual = 4.91205e-07, No Iterations 4
diagonal:  Solving for rho, Initial residual = 0, Final residual = 0, No Iterations 0
time step continuity errors : sum local = 1.50837e-08, global = 7.76581e-10, cumulative = -2.81335e-07
DILUPBiCGStab:  Solving for omega, Initial residual = 0.000102002, Final residual = 9.37739e-10, No Iterations 2
DILUPBiCGStab:  Solving for k, Initial residual = 0.00458797, Final residual = 1.8998e-09, No Iterations 3

ExecutionTime = 2.52 s  ClockTime = 2 s

    Overall     = 0.00152279, 0.01
Time = 269

diagonal:  Solving for rho, Initial residual = 0, Final residual = 0, No Iterations 0

Execution time for mesh.update() = 0 s

DILUPBiCGStab:  Solving for Ux, Initial residual = 0.00455512, Final residual = 4.5207e-09, No Iterations 3
DILUPBiCGStab:  Solving for Uy, Initial residual = 0.00763503, Final residual = 5.70331e-09, No Iterations 3
DILUPBiCGStab:  Solving for O2, Initial residual = 0.00387057, Final residual = 3.9065e-09, No Iterations 3
DILUPBiCGStab:  Solving for H2O, Initial residual = 0.00387058, Final residual = 3.90653e-09, No Iterations 3
DILUPBiCGStab:  Solving for CH4, Initial residual = 0, Final residual = 0, No Iterations 0
DILUPBiCGStab:  Solving for CO2, Initial residual = 0.00387058, Final residual = 3.90653e-09, No Iterations 3
DILUPBiCGStab:  Solving for h, Initial residual = 0.00434066, Final residual = 3.40941e-09, No Iterations 3
min/max(T) = 300, 1044.97
GAMGPCG:  Solving for p_rgh, Initial residual = 0.0238783, Final residual = 1.59171e-07, No Iterations 5
diagonal:  Solving for rho, Initial residual = 0, Final residual = 0, No Iterations 0
time step continuity errors : sum local = 5.18085e-09, global = -2.1537e-10, cumulative = -2.8155e-07
GAMGPCG:  Solving for p_rgh, Initial residual = 0.00349974, Final residual = 5.26626e-07, No Iterations 4
diagonal:  Solving for rho, Initial residual = 0, Final residual = 0, No Iterations 0
time step continuity errors : sum local = 1.61661e-08, global = 5.86581e-10, cumulative = -2.80963e-07
DILUPBiCGStab:  Solving for omega, Initial residual = 0.00010204, Final residual = 8.51156e-10, No Iterations 2
DILUPBiCGStab:  Solving for k, Initial residual = 0.00455637, Final residual = 1.69832e-09, No Iterations 3

ExecutionTime = 2.64 s  ClockTime = 2 s

    Overall     = 0.00151958, 0.01
Time = 270

diagonal:  Solving for rho, Initial residual = 0, Final residual = 0, No Iterations 0

Execution time for mesh.update() = 0 s

DILUPBiCGStab:  Solving for Ux, Initial residual = 0.00453545, Final residual = 4.8607e-09, No Iterations 3
DILUPBiCGStab:  Solving for Uy, Initial residual = 0.00759448, Final residual = 5.49058e-09, No Iterations 3
GAMGPCG:  Solving for G, Initial residual = 0.13407, Final residual = 9.11853e-05, No Iterations 6
DILUPBiCGStab:  Solving for O2, Initial residual = 0.00386163, Final residual = 4.87111e-09, No Iterations 3
DILUPBiCGStab:  Solving for H2O, Initial residual = 0.00386163, Final residual = 4.87111e-09, No Iterations 3
DILUPBiCGStab:  Solving for CH4, Initial residual = 0, Final residual = 0, No Iterations 0
DILUPBiCGStab:  Solving for CO2, Initial residual = 0.00386164, Final residual = 4.87112e-09, No Iterations 3
DILUPBiCGStab:  Solving for h, Initial residual = 0.00432926, Final residual = 5.31442e-09, No Iterations 3
min/max(T) = 300, 1044.97
GAMGPCG:  Solving for p_rgh, Initial residual = 0.0233694, Final residual = 1.62761e-07, No Iterations 5
diagonal:  Solving for rho, Initial residual = 0, Final residual = 0, No Iterations 0
time step continuity errors : sum local = 5.16602e-09, global = -2.64396e-10, cumulative = -2.81228e-07
GAMGPCG:  Solving for p_rgh, Initial residual = 0.00345902, Final residual = 5.45819e-07, No Iterations 4
diagonal:  Solving for rho, Initial residual = 0, Final residual = 0, No Iterations 0
time step continuity errors : sum local = 1.65162e-08, global = 5.60007e-10, cumulative = -2.80668e-07
DILUPBiCGStab:  Solving for omega, Initial residual = 0.000100627, Final residual = 8.58596e-10, No Iterations 2
DILUPBiCGStab:  Solving for k, Initial residual = 0.0045237, Final residual = 1.5278e-09, No Iterations 3

ExecutionTime = 2.89 s  ClockTime = 3 s

    Overall     = 0.00151466, 0.01
Time = 271

diagonal:  Solving for rho, Initial residual = 0, Final residual = 0, No Iterations 0

Execution time for mesh.update() = 0 s

DILUPBiCGStab:  Solving for Ux, Initial residual = 0.00452919, Final residual = 4.67423e-09, No Iterations 3
DILUPBiCGStab:  Solving for Uy, Initial residual = 0.0075431, Final residual = 5.51856e-09, No Iterations 3
DILUPBiCGStab:  Solving for O2, Initial residual = 0.00384068, Final residual = 3.32941e-09, No Iterations 3
DILUPBiCGStab:  Solving for H2O, Initial residual = 0.00384069, Final residual = 3.3294e-09, No Iterations 3
DILUPBiCGStab:  Solving for CH4, Initial residual = 0, Final residual = 0, No Iterations 0
DILUPBiCGStab:  Solving for CO2, Initial residual = 0.00384069, Final residual = 3.3294e-09, No Iterations 3
DILUPBiCGStab:  Solving for h, Initial residual = 0.00430416, Final residual = 2.66957e-09, No Iterations 3
min/max(T) = 300, 1044.97
GAMGPCG:  Solving for p_rgh, Initial residual = 0.0229383, Final residual = 1.50415e-07, No Iterations 5
diagonal:  Solving for rho, Initial residual = 0, Final residual = 0, No Iterations 0
time step continuity errors : sum local = 4.8095e-09, global = -6.69418e-11, cumulative = -2.80735e-07
GAMGPCG:  Solving for p_rgh, Initial residual = 0.00335464, Final residual = 5.52379e-07, No Iterations 4
diagonal:  Solving for rho, Initial residual = 0, Final residual = 0, No Iterations 0
time step continuity errors : sum local = 1.66932e-08, global = 5.25285e-10, cumulative = -2.80209e-07
DILUPBiCGStab:  Solving for omega, Initial residual = 9.97284e-05, Final residual = 8.56433e-10, No Iterations 2
DILUPBiCGStab:  Solving for k, Initial residual = 0.00448949, Final residual = 1.42855e-09, No Iterations 3

ExecutionTime = 3 s  ClockTime = 3 s

    Overall     = 0.00150928, 0.01
Time = 272

diagonal:  Solving for rho, Initial residual = 0, Final residual = 0, No Iterations 0

Execution time for mesh.update() = 0 s

DILUPBiCGStab:  Solving for Ux, Initial residual = 0.00452005, Final residual = 4.79016e-09, No Iterations 3
DILUPBiCGStab:  Solving for Uy, Initial residual = 0.0075086, Final residual = 5.30031e-09, No Iterations 3
DILUPBiCGStab:  Solving for O2, Initial residual = 0.0038407, Final residual = 2.82813e-09, No Iterations 3
DILUPBiCGStab:  Solving for H2O, Initial residual = 0.0038407, Final residual = 2.82814e-09, No Iterations 3
DILUPBiCGStab:  Solving for CH4, Initial residual = 0, Final residual = 0, No Iterations 0
DILUPBiCGStab:  Solving for CO2, Initial residual = 0.0038407, Final residual = 2.82814e-09, No Iterations 3
DILUPBiCGStab:  Solving for h, Initial residual = 0.00430586, Final residual = 2.40684e-09, No Iterations 3
min/max(T) = 300, 1044.97
GAMGPCG:  Solving for p_rgh, Initial residual = 0.02328, Final residual = 1.5119e-07, No Iterations 5
diagonal:  Solving for rho, Initial residual = 0, Final residual = 0, No Iterations 0
time step continuity errors : sum local = 4.73994e-09, global = -7.53931e-10, cumulative = -2.80963e-07
GAMGPCG:  Solving for p_rgh, Initial residual = 0.00336884, Final residual = 5.83803e-07, No Iterations 4
diagonal:  Solving for rho, Initial residual = 0, Final residual = 0, No Iterations 0
time step continuity errors : sum local = 1.71955e-08, global = 8.14338e-10, cumulative = -2.80149e-07
DILUPBiCGStab:  Solving for omega, Initial residual = 9.85877e-05, Final residual = 8.41794e-10, No Iterations 2
DILUPBiCGStab:  Solving for k, Initial residual = 0.00446805, Final residual = 1.36113e-09, No Iterations 3

ExecutionTime = 3.12 s  ClockTime = 3 s

    Overall     = 0.00150641, 0.01
Time = 273

diagonal:  Solving for rho, Initial residual = 0, Final residual = 0, No Iterations 0

Execution time for mesh.update() = 0 s

DILUPBiCGStab:  Solving for Ux, Initial residual = 0.00450634, Final residual = 4.51732e-09, No Iterations 3
DILUPBiCGStab:  Solving for Uy, Initial residual = 0.00748611, Final residual = 4.94955e-09, No Iterations 3
DILUPBiCGStab:  Solving for O2, Initial residual = 0.00381899, Final residual = 3.02128e-09, No Iterations 3
DILUPBiCGStab:  Solving for H2O, Initial residual = 0.003819, Final residual = 3.02129e-09, No Iterations 3
DILUPBiCGStab:  Solving for CH4, Initial residual = 0, Final residual = 0, No Iterations 0
DILUPBiCGStab:  Solving for CO2, Initial residual = 0.003819, Final residual = 3.02129e-09, No Iterations 3
DILUPBiCGStab:  Solving for h, Initial residual = 0.00427919, Final residual = 2.1762e-09, No Iterations 3
min/max(T) = 300, 1044.97
GAMGPCG:  Solving for p_rgh, Initial residual = 0.0229843, Final residual = 1.79312e-07, No Iterations 5
diagonal:  Solving for rho, Initial residual = 0, Final residual = 0, No Iterations 0
time step continuity errors : sum local = 5.70357e-09, global = -1.25686e-09, cumulative = -2.81406e-07
GAMGPCG:  Solving for p_rgh, Initial residual = 0.00330905, Final residual = 5.89603e-07, No Iterations 4
diagonal:  Solving for rho, Initial residual = 0, Final residual = 0, No Iterations 0
time step continuity errors : sum local = 1.73979e-08, global = 9.01687e-10, cumulative = -2.80504e-07
DILUPBiCGStab:  Solving for omega, Initial residual = 9.74753e-05, Final residual = 8.25956e-10, No Iterations 2
DILUPBiCGStab:  Solving for k, Initial residual = 0.00445146, Final residual = 1.34768e-09, No Iterations 3

ExecutionTime = 3.24 s  ClockTime = 3 s

    Overall     = 0.0015045, 0.01
Time = 274

diagonal:  Solving for rho, Initial residual = 0, Final residual = 0, No Iterations 0

Execution time for mesh.update() = 0 s

DILUPBiCGStab:  Solving for Ux, Initial residual = 0.00447788, Final residual = 4.85134e-09, No Iterations 3
DILUPBiCGStab:  Solving for Uy, Initial residual = 0.00743434, Final residual = 5.31499e-09, No Iterations 3
DILUPBiCGStab:  Solving for O2, Initial residual = 0.00380887, Final residual = 2.71697e-09, No Iterations 3
DILUPBiCGStab:  Solving for H2O, Initial residual = 0.00380888, Final residual = 2.71698e-09, No Iterations 3
DILUPBiCGStab:  Solving for CH4, Initial residual = 0, Final residual = 0, No Iterations 0
DILUPBiCGStab:  Solving for CO2, Initial residual = 0.00380888, Final residual = 2.71698e-09, No Iterations 3
DILUPBiCGStab:  Solving for h, Initial residual = 0.00426967, Final residual = 1.97912e-09, No Iterations 3
min/max(T) = 300, 1044.97
GAMGPCG:  Solving for p_rgh, Initial residual = 0.0223837, Final residual = 1.82824e-07, No Iterations 5
diagonal:  Solving for rho, Initial residual = 0, Final residual = 0, No Iterations 0
time step continuity errors : sum local = 5.72542e-09, global = -1.24001e-09, cumulative = -2.81744e-07
GAMGPCG:  Solving for p_rgh, Initial residual = 0.00331698, Final residual = 6.39115e-07, No Iterations 4
diagonal:  Solving for rho, Initial residual = 0, Final residual = 0, No Iterations 0
time step continuity errors : sum local = 1.855e-08, global = 1.1981e-09, cumulative = -2.80546e-07
DILUPBiCGStab:  Solving for omega, Initial residual = 9.6486e-05, Final residual = 7.94825e-10, No Iterations 2
DILUPBiCGStab:  Solving for k, Initial residual = 0.00442546, Final residual = 1.15023e-09, No Iterations 3

ExecutionTime = 3.36 s  ClockTime = 3 s

    Overall     = 0.00150471, 0.01
Time = 275

diagonal:  Solving for rho, Initial residual = 0, Final residual = 0, No Iterations 0

Execution time for mesh.update() = 0 s

DILUPBiCGStab:  Solving for Ux, Initial residual = 0.00445737, Final residual = 4.49182e-09, No Iterations 3
DILUPBiCGStab:  Solving for Uy, Initial residual = 0.00739085, Final residual = 4.72313e-09, No Iterations 3
DILUPBiCGStab:  Solving for O2, Initial residual = 0.00379558, Final residual = 2.79126e-09, No Iterations 3
DILUPBiCGStab:  Solving for H2O, Initial residual = 0.00379558, Final residual = 2.79127e-09, No Iterations 3
DILUPBiCGStab:  Solving for CH4, Initial residual = 0, Final residual = 0, No Iterations 0
DILUPBiCGStab:  Solving for CO2, Initial residual = 0.00379558, Final residual = 2.79127e-09, No Iterations 3
DILUPBiCGStab:  Solving for h, Initial residual = 0.00425405, Final residual = 1.98575e-09, No Iterations 3
min/max(T) = 300, 1044.97
GAMGPCG:  Solving for p_rgh, Initial residual = 0.0223544, Final residual = 2.68814e-07, No Iterations 5
diagonal:  Solving for rho, Initial residual = 0, Final residual = 0, No Iterations 0
time step continuity errors : sum local = 8.36788e-09, global = -1.30476e-09, cumulative = -2.81851e-07
GAMGPCG:  Solving for p_rgh, Initial residual = 0.00323134, Final residual = 6.92951e-07, No Iterations 4
diagonal:  Solving for rho, Initial residual = 0, Final residual = 0, No Iterations 0
time step continuity errors : sum local = 2.00107e-08, global = 1.4483e-09, cumulative = -2.80403e-07
DILUPBiCGStab:  Solving for omega, Initial residual = 9.66202e-05, Final residual = 7.92902e-10, No Iterations 2
DILUPBiCGStab:  Solving for k, Initial residual = 0.00440516, Final residual = 1.21451e-09, No Iterations 3

ExecutionTime = 3.48 s  ClockTime = 3 s

    Overall     = 0.00150528, 0.01
Time = 276

diagonal:  Solving for rho, Initial residual = 0, Final residual = 0, No Iterations 0

Execution time for mesh.update() = 0 s

DILUPBiCGStab:  Solving for Ux, Initial residual = 0.00443819, Final residual = 4.69391e-09, No Iterations 3
DILUPBiCGStab:  Solving for Uy, Initial residual = 0.00734116, Final residual = 5.16333e-09, No Iterations 3
DILUPBiCGStab:  Solving for O2, Initial residual = 0.00378286, Final residual = 2.72566e-09, No Iterations 3
DILUPBiCGStab:  Solving for H2O, Initial residual = 0.00378286, Final residual = 2.72567e-09, No Iterations 3
DILUPBiCGStab:  Solving for CH4, Initial residual = 0, Final residual = 0, No Iterations 0
DILUPBiCGStab:  Solving for CO2, Initial residual = 0.00378286, Final residual = 2.72567e-09, No Iterations 3
DILUPBiCGStab:  Solving for h, Initial residual = 0.00423692, Final residual = 2.23963e-09, No Iterations 3
min/max(T) = 300, 1044.97
GAMGPCG:  Solving for p_rgh, Initial residual = 0.0218961, Final residual = 1.52618e-07, No Iterations 5
diagonal:  Solving for rho, Initial residual = 0, Final residual = 0, No Iterations 0
time step continuity errors : sum local = 4.78277e-09, global = -1.0981e-09, cumulative = -2.81501e-07
GAMGPCG:  Solving for p_rgh, Initial residual = 0.00314211, Final residual = 6.83315e-07, No Iterations 4
diagonal:  Solving for rho, Initial residual = 0, Final residual = 0, No Iterations 0
time step continuity errors : sum local = 1.9619e-08, global = 1.54503e-09, cumulative = -2.79956e-07
DILUPBiCGStab:  Solving for omega, Initial residual = 9.58362e-05, Final residual = 7.86594e-10, No Iterations 2
DILUPBiCGStab:  Solving for k, Initial residual = 0.00438059, Final residual = 1.28269e-09, No Iterations 3

ExecutionTime = 3.59 s  ClockTime = 3 s

    Overall     = 0.0015054, 0.01
Time = 277

diagonal:  Solving for rho, Initial residual = 0, Final residual = 0, No Iterations 0

Execution time for mesh.update() = 0 s

DILUPBiCGStab:  Solving for Ux, Initial residual = 0.00443444, Final residual = 4.2509e-09, No Iterations 3
DILUPBiCGStab:  Solving for Uy, Initial residual = 0.00733805, Final residual = 4.40531e-09, No Iterations 3
DILUPBiCGStab:  Solving for O2, Initial residual = 0.00376923, Final residual = 2.80457e-09, No Iterations 3
DILUPBiCGStab:  Solving for H2O, Initial residual = 0.00376923, Final residual = 2.80458e-09, No Iterations 3
DILUPBiCGStab:  Solving for CH4, Initial residual = 0, Final residual = 0, No Iterations 0
DILUPBiCGStab:  Solving for CO2, Initial residual = 0.00376923, Final residual = 2.80459e-09, No Iterations 3
DILUPBiCGStab:  Solving for h, Initial residual = 0.00422191, Final residual = 1.91516e-09, No Iterations 3
min/max(T) = 300, 1044.97
GAMGPCG:  Solving for p_rgh, Initial residual = 0.0213735, Final residual = 2.7424e-07, No Iterations 5
diagonal:  Solving for rho, Initial residual = 0, Final residual = 0, No Iterations 0
time step continuity errors : sum local = 8.5073e-09, global = -1.15057e-09, cumulative = -2.81106e-07
GAMGPCG:  Solving for p_rgh, Initial residual = 0.0031218, Final residual = 7.21263e-07, No Iterations 4
diagonal:  Solving for rho, Initial residual = 0, Final residual = 0, No Iterations 0
time step continuity errors : sum local = 2.07179e-08, global = 1.82346e-09, cumulative = -2.79283e-07
DILUPBiCGStab:  Solving for omega, Initial residual = 9.5629e-05, Final residual = 8.48821e-10, No Iterations 2
DILUPBiCGStab:  Solving for k, Initial residual = 0.0043461, Final residual = 1.28676e-09, No Iterations 3

ExecutionTime = 3.71 s  ClockTime = 3 s

    Overall     = 0.00150497, 0.01
Time = 278

diagonal:  Solving for rho, Initial residual = 0, Final residual = 0, No Iterations 0

Execution time for mesh.update() = 0 s

DILUPBiCGStab:  Solving for Ux, Initial residual = 0.0044244, Final residual = 4.37884e-09, No Iterations 3
DILUPBiCGStab:  Solving for Uy, Initial residual = 0.00731951, Final residual = 5.22004e-09, No Iterations 3
DILUPBiCGStab:  Solving for O2, Initial residual = 0.00375349, Final residual = 2.58153e-09, No Iterations 3
DILUPBiCGStab:  Solving for H2O, Initial residual = 0.00375349, Final residual = 2.58154e-09, No Iterations 3
DILUPBiCGStab:  Solving for CH4, Initial residual = 0, Final residual = 0, No Iterations 0
DILUPBiCGStab:  Solving for CO2, Initial residual = 0.00375349, Final residual = 2.58154e-09, No Iterations 3
DILUPBiCGStab:  Solving for h, Initial residual = 0.00420105, Final residual = 1.92589e-09, No Iterations 3
min/max(T) = 300, 1044.97
GAMGPCG:  Solving for p_rgh, Initial residual = 0.0213551, Final residual = 3.58399e-07, No Iterations 5
diagonal:  Solving for rho, Initial residual = 0, Final residual = 0, No Iterations 0
time step continuity errors : sum local = 1.09199e-08, global = -9.89182e-10, cumulative = -2.80272e-07
GAMGPCG:  Solving for p_rgh, Initial residual = 0.00315449, Final residual = 7.08021e-07, No Iterations 4
diagonal:  Solving for rho, Initial residual = 0, Final residual = 0, No Iterations 0
time step continuity errors : sum local = 2.05405e-08, global = 1.96403e-09, cumulative = -2.78308e-07
DILUPBiCGStab:  Solving for omega, Initial residual = 9.45571e-05, Final residual = 9.77593e-10, No Iterations 2
DILUPBiCGStab:  Solving for k, Initial residual = 0.00432628, Final residual = 1.27175e-09, No Iterations 3

ExecutionTime = 3.83 s  ClockTime = 4 s

    Overall     = 0.00150445, 0.01
Time = 279

diagonal:  Solving for rho, Initial residual = 0, Final residual = 0, No Iterations 0

Execution time for mesh.update() = 0 s

DILUPBiCGStab:  Solving for Ux, Initial residual = 0.00442167, Final residual = 4.16447e-09, No Iterations 3
DILUPBiCGStab:  Solving for Uy, Initial residual = 0.00732463, Final residual = 4.65662e-09, No Iterations 3
DILUPBiCGStab:  Solving for O2, Initial residual = 0.0037433, Final residual = 2.90745e-09, No Iterations 3
DILUPBiCGStab:  Solving for H2O, Initial residual = 0.0037433, Final residual = 2.90745e-09, No Iterations 3
DILUPBiCGStab:  Solving for CH4, Initial residual = 0, Final residual = 0, No Iterations 0
DILUPBiCGStab:  Solving for CO2, Initial residual = 0.0037433, Final residual = 2.90745e-09, No Iterations 3
DILUPBiCGStab:  Solving for h, Initial residual = 0.00419217, Final residual = 2.08142e-09, No Iterations 3
min/max(T) = 300, 1044.97
GAMGPCG:  Solving for p_rgh, Initial residual = 0.0212929, Final residual = 3.49653e-07, No Iterations 5
diagonal:  Solving for rho, Initial residual = 0, Final residual = 0, No Iterations 0
time step continuity errors : sum local = 1.06953e-08, global = -1.3438e-09, cumulative = -2.79652e-07
GAMGPCG:  Solving for p_rgh, Initial residual = 0.0031134, Final residual = 7.28147e-07, No Iterations 4
diagonal:  Solving for rho, Initial residual = 0, Final residual = 0, No Iterations 0
time step continuity errors : sum local = 2.09077e-08, global = 2.20371e-09, cumulative = -2.77448e-07
DILUPBiCGStab:  Solving for omega, Initial residual = 9.32227e-05, Final residual = 1.14129e-09, No Iterations 2
DILUPBiCGStab:  Solving for k, Initial residual = 0.00431007, Final residual = 1.18462e-09, No Iterations 3

ExecutionTime = 3.95 s  ClockTime = 4 s

    Overall     = 0.00150293, 0.01
Time = 280

diagonal:  Solving for rho, Initial residual = 0, Final residual = 0, No Iterations 0

Execution time for mesh.update() = 0 s

DILUPBiCGStab:  Solving for Ux, Initial residual = 0.00442329, Final residual = 4.27527e-09, No Iterations 3
DILUPBiCGStab:  Solving for Uy, Initial residual = 0.00732001, Final residual = 5.52095e-09, No Iterations 3
GAMGPCG:  Solving for G, Initial residual = 0.124764, Final residual = 4.10642e-05, No Iterations 6
DILUPBiCGStab:  Solving for O2, Initial residual = 0.00372939, Final residual = 2.87553e-09, No Iterations 3
DILUPBiCGStab:  Solving for H2O, Initial residual = 0.0037294, Final residual = 2.87553e-09, No Iterations 3
DILUPBiCGStab:  Solving for CH4, Initial residual = 0, Final residual = 0, No Iterations 0
DILUPBiCGStab:  Solving for CO2, Initial residual = 0.0037294, Final residual = 2.87553e-09, No Iterations 3
DILUPBiCGStab:  Solving for h, Initial residual = 0.00417722, Final residual = 2.11062e-09, No Iterations 3
min/max(T) = 300, 1044.97
GAMGPCG:  Solving for p_rgh, Initial residual = 0.0210532, Final residual = 3.2806e-07, No Iterations 5
diagonal:  Solving for rho, Initial residual = 0, Final residual = 0, No Iterations 0
time step continuity errors : sum local = 1.0041e-08, global = -1.13397e-09, cumulative = -2.78582e-07
GAMGPCG:  Solving for p_rgh, Initial residual = 0.00317534, Final residual = 7.15395e-07, No Iterations 4
diagonal:  Solving for rho, Initial residual = 0, Final residual = 0, No Iterations 0
time step continuity errors : sum local = 2.05457e-08, global = 2.27698e-09, cumulative = -2.76305e-07
DILUPBiCGStab:  Solving for omega, Initial residual = 9.25304e-05, Final residual = 1.27334e-09, No Iterations 2
DILUPBiCGStab:  Solving for k, Initial residual = 0.00428275, Final residual = 1.13019e-09, No Iterations 3

ExecutionTime = 4.2 s  ClockTime = 4 s

    Overall     = 0.00150387, 0.01
Time = 281

diagonal:  Solving for rho, Initial residual = 0, Final residual = 0, No Iterations 0

Execution time for mesh.update() = 0.01 s

DILUPBiCGStab:  Solving for Ux, Initial residual = 0.004408, Final residual = 4.12627e-09, No Iterations 3
DILUPBiCGStab:  Solving for Uy, Initial residual = 0.00730031, Final residual = 4.85775e-09, No Iterations 3
DILUPBiCGStab:  Solving for O2, Initial residual = 0.00372299, Final residual = 2.8966e-09, No Iterations 3
DILUPBiCGStab:  Solving for H2O, Initial residual = 0.003723, Final residual = 2.8966e-09, No Iterations 3
DILUPBiCGStab:  Solving for CH4, Initial residual = 0, Final residual = 0, No Iterations 0
DILUPBiCGStab:  Solving for CO2, Initial residual = 0.003723, Final residual = 2.8966e-09, No Iterations 3
DILUPBiCGStab:  Solving for h, Initial residual = 0.00417147, Final residual = 2.19595e-09, No Iterations 3
min/max(T) = 300, 1044.97
GAMGPCG:  Solving for p_rgh, Initial residual = 0.0212946, Final residual = 3.53873e-07, No Iterations 5
diagonal:  Solving for rho, Initial residual = 0, Final residual = 0, No Iterations 0
time step continuity errors : sum local = 1.06057e-08, global = -8.53771e-10, cumulative = -2.77159e-07
GAMGPCG:  Solving for p_rgh, Initial residual = 0.00311199, Final residual = 7.04803e-07, No Iterations 4
diagonal:  Solving for rho, Initial residual = 0, Final residual = 0, No Iterations 0
time step continuity errors : sum local = 2.00827e-08, global = 2.24195e-09, cumulative = -2.74917e-07
DILUPBiCGStab:  Solving for omega, Initial residual = 9.18929e-05, Final residual = 1.37858e-09, No Iterations 2
DILUPBiCGStab:  Solving for k, Initial residual = 0.00425602, Final residual = 1.0648e-09, No Iterations 3

ExecutionTime = 4.32 s  ClockTime = 4 s

    Overall     = 0.00150478, 0.01
Time = 282

diagonal:  Solving for rho, Initial residual = 0, Final residual = 0, No Iterations 0

Execution time for mesh.update() = 0 s

DILUPBiCGStab:  Solving for Ux, Initial residual = 0.00440996, Final residual = 4.51122e-09, No Iterations 3
DILUPBiCGStab:  Solving for Uy, Initial residual = 0.00729939, Final residual = 5.50276e-09, No Iterations 3
DILUPBiCGStab:  Solving for O2, Initial residual = 0.00371311, Final residual = 2.84353e-09, No Iterations 3
DILUPBiCGStab:  Solving for H2O, Initial residual = 0.00371312, Final residual = 2.84353e-09, No Iterations 3
DILUPBiCGStab:  Solving for CH4, Initial residual = 0, Final residual = 0, No Iterations 0
DILUPBiCGStab:  Solving for CO2, Initial residual = 0.00371312, Final residual = 2.84353e-09, No Iterations 3
DILUPBiCGStab:  Solving for h, Initial residual = 0.00415634, Final residual = 2.31591e-09, No Iterations 3
min/max(T) = 300, 1044.97
GAMGPCG:  Solving for p_rgh, Initial residual = 0.0208427, Final residual = 4.11584e-07, No Iterations 5
diagonal:  Solving for rho, Initial residual = 0, Final residual = 0, No Iterations 0
time step continuity errors : sum local = 1.20692e-08, global = -7.4733e-10, cumulative = -2.75664e-07
GAMGPCG:  Solving for p_rgh, Initial residual = 0.00313551, Final residual = 7.11766e-07, No Iterations 4
diagonal:  Solving for rho, Initial residual = 0, Final residual = 0, No Iterations 0
time step continuity errors : sum local = 2.00866e-08, global = 2.36166e-09, cumulative = -2.73302e-07
DILUPBiCGStab:  Solving for omega, Initial residual = 9.20601e-05, Final residual = 1.38403e-09, No Iterations 2
DILUPBiCGStab:  Solving for k, Initial residual = 0.00423797, Final residual = 1.10907e-09, No Iterations 3

ExecutionTime = 4.44 s  ClockTime = 4 s

    Overall     = 0.00150798, 0.01
Time = 283

diagonal:  Solving for rho, Initial residual = 0, Final residual = 0, No Iterations 0

Execution time for mesh.update() = 0 s

DILUPBiCGStab:  Solving for Ux, Initial residual = 0.00438515, Final residual = 4.71241e-09, No Iterations 3
DILUPBiCGStab:  Solving for Uy, Initial residual = 0.00727621, Final residual = 5.59131e-09, No Iterations 3
DILUPBiCGStab:  Solving for O2, Initial residual = 0.00370573, Final residual = 3.05308e-09, No Iterations 3
DILUPBiCGStab:  Solving for H2O, Initial residual = 0.00370574, Final residual = 3.05308e-09, No Iterations 3
DILUPBiCGStab:  Solving for CH4, Initial residual = 0, Final residual = 0, No Iterations 0
DILUPBiCGStab:  Solving for CO2, Initial residual = 0.00370574, Final residual = 3.05308e-09, No Iterations 3
DILUPBiCGStab:  Solving for h, Initial residual = 0.00414933, Final residual = 2.34792e-09, No Iterations 3
min/max(T) = 300, 1044.97
GAMGPCG:  Solving for p_rgh, Initial residual = 0.0209194, Final residual = 4.18966e-07, No Iterations 5
diagonal:  Solving for rho, Initial residual = 0, Final residual = 0, No Iterations 0
time step continuity errors : sum local = 1.23847e-08, global = -1.2124e-09, cumulative = -2.74515e-07
GAMGPCG:  Solving for p_rgh, Initial residual = 0.00314045, Final residual = 6.83099e-07, No Iterations 4
diagonal:  Solving for rho, Initial residual = 0, Final residual = 0, No Iterations 0
time step continuity errors : sum local = 1.93274e-08, global = 2.35627e-09, cumulative = -2.72159e-07
DILUPBiCGStab:  Solving for omega, Initial residual = 9.16246e-05, Final residual = 1.42222e-09, No Iterations 2
DILUPBiCGStab:  Solving for k, Initial residual = 0.00421813, Final residual = 1.22563e-09, No Iterations 3

ExecutionTime = 4.56 s  ClockTime = 4 s

    Overall     = 0.00151082, 0.01
Time = 284

diagonal:  Solving for rho, Initial residual = 0, Final residual = 0, No Iterations 0

Execution time for mesh.update() = 0 s

DILUPBiCGStab:  Solving for Ux, Initial residual = 0.00439046, Final residual = 5.22744e-09, No Iterations 3
DILUPBiCGStab:  Solving for Uy, Initial residual = 0.00726512, Final residual = 5.76853e-09, No Iterations 3
DILUPBiCGStab:  Solving for O2, Initial residual = 0.00369922, Final residual = 3.11659e-09, No Iterations 3
DILUPBiCGStab:  Solving for H2O, Initial residual = 0.00369923, Final residual = 3.11659e-09, No Iterations 3
DILUPBiCGStab:  Solving for CH4, Initial residual = 0, Final residual = 0, No Iterations 0
DILUPBiCGStab:  Solving for CO2, Initial residual = 0.00369923, Final residual = 3.11659e-09, No Iterations 3
DILUPBiCGStab:  Solving for h, Initial residual = 0.00414591, Final residual = 2.44683e-09, No Iterations 3
min/max(T) = 300, 1044.97
GAMGPCG:  Solving for p_rgh, Initial residual = 0.0208437, Final residual = 3.77046e-07, No Iterations 5
diagonal:  Solving for rho, Initial residual = 0, Final residual = 0, No Iterations 0
time step continuity errors : sum local = 1.10711e-08, global = -5.77476e-10, cumulative = -2.72736e-07
GAMGPCG:  Solving for p_rgh, Initial residual = 0.00310471, Final residual = 6.81518e-07, No Iterations 4
diagonal:  Solving for rho, Initial residual = 0, Final residual = 0, No Iterations 0
time step continuity errors : sum local = 1.90735e-08, global = 2.42518e-09, cumulative = -2.70311e-07
DILUPBiCGStab:  Solving for omega, Initial residual = 9.09538e-05, Final residual = 1.31422e-09, No Iterations 2
DILUPBiCGStab:  Solving for k, Initial residual = 0.00419004, Final residual = 1.27335e-09, No Iterations 3

ExecutionTime = 4.68 s  ClockTime = 4 s

    Overall     = 0.00151332, 0.01
Time = 285

diagonal:  Solving for rho, Initial residual = 0, Final residual = 0, No Iterations 0

Execution time for mesh.update() = 0 s

DILUPBiCGStab:  Solving for Ux, Initial residual = 0.00438235, Final residual = 5.12627e-09, No Iterations 3
DILUPBiCGStab:  Solving for Uy, Initial residual = 0.0072691, Final residual = 5.77349e-09, No Iterations 3
DILUPBiCGStab:  Solving for O2, Initial residual = 0.00368605, Final residual = 3.11774e-09, No Iterations 3
DILUPBiCGStab:  Solving for H2O, Initial residual = 0.00368606, Final residual = 3.11773e-09, No Iterations 3
DILUPBiCGStab:  Solving for CH4, Initial residual = 0, Final residual = 0, No Iterations 0
DILUPBiCGStab:  Solving for CO2, Initial residual = 0.00368606, Final residual = 3.11773e-09, No Iterations 3
DILUPBiCGStab:  Solving for h, Initial residual = 0.00412954, Final residual = 2.36035e-09, No Iterations 3
min/max(T) = 300, 1044.97
GAMGPCG:  Solving for p_rgh, Initial residual = 0.0211707, Final residual = 4.05596e-07, No Iterations 5
diagonal:  Solving for rho, Initial residual = 0, Final residual = 0, No Iterations 0
time step continuity errors : sum local = 1.19294e-08, global = -9.7508e-10, cumulative = -2.71286e-07
GAMGPCG:  Solving for p_rgh, Initial residual = 0.00313006, Final residual = 6.99586e-07, No Iterations 4
diagonal:  Solving for rho, Initial residual = 0, Final residual = 0, No Iterations 0
time step continuity errors : sum local = 1.95575e-08, global = 2.71188e-09, cumulative = -2.68574e-07
DILUPBiCGStab:  Solving for omega, Initial residual = 9.02324e-05, Final residual = 1.12644e-09, No Iterations 2
DILUPBiCGStab:  Solving for k, Initial residual = 0.00416875, Final residual = 1.26834e-09, No Iterations 3

ExecutionTime = 4.79 s  ClockTime = 4 s

    Overall     = 0.00151467, 0.01
Time = 286

diagonal:  Solving for rho, Initial residual = 0, Final residual = 0, No Iterations 0

Execution time for mesh.update() = 0 s

DILUPBiCGStab:  Solving for Ux, Initial residual = 0.00437458, Final residual = 5.53162e-09, No Iterations 3
DILUPBiCGStab:  Solving for Uy, Initial residual = 0.00726654, Final residual = 7.02009e-09, No Iterations 3
DILUPBiCGStab:  Solving for O2, Initial residual = 0.00367639, Final residual = 2.8744e-09, No Iterations 3
DILUPBiCGStab:  Solving for H2O, Initial residual = 0.0036764, Final residual = 2.8744e-09, No Iterations 3
DILUPBiCGStab:  Solving for CH4, Initial residual = 0, Final residual = 0, No Iterations 0
DILUPBiCGStab:  Solving for CO2, Initial residual = 0.0036764, Final residual = 2.8744e-09, No Iterations 3
DILUPBiCGStab:  Solving for h, Initial residual = 0.00412057, Final residual = 2.41544e-09, No Iterations 3
min/max(T) = 300, 1044.97
GAMGPCG:  Solving for p_rgh, Initial residual = 0.0210012, Final residual = 3.7938e-07, No Iterations 5
diagonal:  Solving for rho, Initial residual = 0, Final residual = 0, No Iterations 0
time step continuity errors : sum local = 1.12794e-08, global = -1.06571e-09, cumulative = -2.6964e-07
GAMGPCG:  Solving for p_rgh, Initial residual = 0.00312154, Final residual = 6.91099e-07, No Iterations 4
diagonal:  Solving for rho, Initial residual = 0, Final residual = 0, No Iterations 0
time step continuity errors : sum local = 1.93359e-08, global = 2.67378e-09, cumulative = -2.66966e-07
DILUPBiCGStab:  Solving for omega, Initial residual = 9.03489e-05, Final residual = 1.20697e-09, No Iterations 2
DILUPBiCGStab:  Solving for k, Initial residual = 0.00416015, Final residual = 1.21748e-09, No Iterations 3

ExecutionTime = 4.91 s  ClockTime = 5 s

    Overall     = 0.00151498, 0.01
Time = 287

diagonal:  Solving for rho, Initial residual = 0, Final residual = 0, No Iterations 0

Execution time for mesh.update() = 0 s

DILUPBiCGStab:  Solving for Ux, Initial residual = 0.00437381, Final residual = 5.39831e-09, No Iterations 3
DILUPBiCGStab:  Solving for Uy, Initial residual = 0.00724027, Final residual = 7.12837e-09, No Iterations 3
DILUPBiCGStab:  Solving for O2, Initial residual = 0.00367082, Final residual = 3.01638e-09, No Iterations 3
DILUPBiCGStab:  Solving for H2O, Initial residual = 0.00367083, Final residual = 3.01638e-09, No Iterations 3
DILUPBiCGStab:  Solving for CH4, Initial residual = 0, Final residual = 0, No Iterations 0
DILUPBiCGStab:  Solving for CO2, Initial residual = 0.00367083, Final residual = 3.01638e-09, No Iterations 3
DILUPBiCGStab:  Solving for h, Initial residual = 0.00411696, Final residual = 2.46561e-09, No Iterations 3
min/max(T) = 300, 1044.97
GAMGPCG:  Solving for p_rgh, Initial residual = 0.021664, Final residual = 3.86816e-07, No Iterations 5
diagonal:  Solving for rho, Initial residual = 0, Final residual = 0, No Iterations 0
time step continuity errors : sum local = 1.13226e-08, global = -9.70246e-10, cumulative = -2.67936e-07
GAMGPCG:  Solving for p_rgh, Initial residual = 0.00319723, Final residual = 6.70544e-07, No Iterations 4
diagonal:  Solving for rho, Initial residual = 0, Final residual = 0, No Iterations 0
time step continuity errors : sum local = 1.87756e-08, global = 2.57455e-09, cumulative = -2.65362e-07
DILUPBiCGStab:  Solving for omega, Initial residual = 8.96393e-05, Final residual = 1.34577e-09, No Iterations 2
DILUPBiCGStab:  Solving for k, Initial residual = 0.00414912, Final residual = 1.33331e-09, No Iterations 3

ExecutionTime = 5.03 s  ClockTime = 5 s

    Overall     = 0.00151749, 0.01
Time = 288

diagonal:  Solving for rho, Initial residual = 0, Final residual = 0, No Iterations 0

Execution time for mesh.update() = 0 s

DILUPBiCGStab:  Solving for Ux, Initial residual = 0.00438232, Final residual = 5.8726e-09, No Iterations 3
DILUPBiCGStab:  Solving for Uy, Initial residual = 0.00726661, Final residual = 7.11058e-09, No Iterations 3
DILUPBiCGStab:  Solving for O2, Initial residual = 0.00366051, Final residual = 2.94142e-09, No Iterations 3
DILUPBiCGStab:  Solving for H2O, Initial residual = 0.00366052, Final residual = 2.94142e-09, No Iterations 3
DILUPBiCGStab:  Solving for CH4, Initial residual = 0, Final residual = 0, No Iterations 0
DILUPBiCGStab:  Solving for CO2, Initial residual = 0.00366052, Final residual = 2.94142e-09, No Iterations 3
DILUPBiCGStab:  Solving for h, Initial residual = 0.00410542, Final residual = 2.58818e-09, No Iterations 3
min/max(T) = 300, 1044.97
GAMGPCG:  Solving for p_rgh, Initial residual = 0.0215677, Final residual = 3.68745e-07, No Iterations 5
diagonal:  Solving for rho, Initial residual = 0, Final residual = 0, No Iterations 0
time step continuity errors : sum local = 1.0923e-08, global = -1.29351e-09, cumulative = -2.66655e-07
GAMGPCG:  Solving for p_rgh, Initial residual = 0.00321879, Final residual = 6.48283e-07, No Iterations 4
diagonal:  Solving for rho, Initial residual = 0, Final residual = 0, No Iterations 0
time step continuity errors : sum local = 1.7997e-08, global = 2.46707e-09, cumulative = -2.64188e-07
DILUPBiCGStab:  Solving for omega, Initial residual = 8.84707e-05, Final residual = 1.45525e-09, No Iterations 2
DILUPBiCGStab:  Solving for k, Initial residual = 0.00412857, Final residual = 1.462e-09, No Iterations 3

ExecutionTime = 5.15 s  ClockTime = 5 s

    Overall     = 0.00152068, 0.01
Time = 289

diagonal:  Solving for rho, Initial residual = 0, Final residual = 0, No Iterations 0

Execution time for mesh.update() = 0 s

DILUPBiCGStab:  Solving for Ux, Initial residual = 0.00438438, Final residual = 5.48038e-09, No Iterations 3
DILUPBiCGStab:  Solving for Uy, Initial residual = 0.00725295, Final residual = 6.74759e-09, No Iterations 3
DILUPBiCGStab:  Solving for O2, Initial residual = 0.00365412, Final residual = 3.00015e-09, No Iterations 3
DILUPBiCGStab:  Solving for H2O, Initial residual = 0.00365413, Final residual = 3.00015e-09, No Iterations 3
DILUPBiCGStab:  Solving for CH4, Initial residual = 0, Final residual = 0, No Iterations 0
DILUPBiCGStab:  Solving for CO2, Initial residual = 0.00365413, Final residual = 3.00015e-09, No Iterations 3
DILUPBiCGStab:  Solving for h, Initial residual = 0.00410035, Final residual = 2.5586e-09, No Iterations 3
min/max(T) = 300, 1044.97
GAMGPCG:  Solving for p_rgh, Initial residual = 0.0221735, Final residual = 3.486e-07, No Iterations 5
diagonal:  Solving for rho, Initial residual = 0, Final residual = 0, No Iterations 0
time step continuity errors : sum local = 1.01068e-08, global = -8.14212e-10, cumulative = -2.65002e-07
GAMGPCG:  Solving for p_rgh, Initial residual = 0.00329323, Final residual = 6.59192e-07, No Iterations 4
diagonal:  Solving for rho, Initial residual = 0, Final residual = 0, No Iterations 0
time step continuity errors : sum local = 1.83169e-08, global = 2.6068e-09, cumulative = -2.62396e-07
DILUPBiCGStab:  Solving for omega, Initial residual = 8.81111e-05, Final residual = 1.39974e-09, No Iterations 2
DILUPBiCGStab:  Solving for k, Initial residual = 0.00411938, Final residual = 1.54718e-09, No Iterations 3

ExecutionTime = 5.27 s  ClockTime = 5 s

    Overall     = 0.00152598, 0.01
Time = 290

diagonal:  Solving for rho, Initial residual = 0, Final residual = 0, No Iterations 0

Execution time for mesh.update() = 0 s

DILUPBiCGStab:  Solving for Ux, Initial residual = 0.00437544, Final residual = 5.06631e-09, No Iterations 3
DILUPBiCGStab:  Solving for Uy, Initial residual = 0.00723742, Final residual = 7.05729e-09, No Iterations 3
GAMGPCG:  Solving for G, Initial residual = 0.119776, Final residual = 6.84151e-05, No Iterations 6
DILUPBiCGStab:  Solving for O2, Initial residual = 0.00364029, Final residual = 3.30456e-09, No Iterations 3
DILUPBiCGStab:  Solving for H2O, Initial residual = 0.0036403, Final residual = 3.30456e-09, No Iterations 3
DILUPBiCGStab:  Solving for CH4, Initial residual = 0, Final residual = 0, No Iterations 0
DILUPBiCGStab:  Solving for CO2, Initial residual = 0.0036403, Final residual = 3.30456e-09, No Iterations 3
DILUPBiCGStab:  Solving for h, Initial residual = 0.0040856, Final residual = 3.289e-09, No Iterations 3
min/max(T) = 300, 1044.97
GAMGPCG:  Solving for p_rgh, Initial residual = 0.0217701, Final residual = 3.66895e-07, No Iterations 5
diagonal:  Solving for rho, Initial residual = 0, Final residual = 0, No Iterations 0
time step continuity errors : sum local = 1.05808e-08, global = -9.42238e-10, cumulative = -2.63338e-07
GAMGPCG:  Solving for p_rgh, Initial residual = 0.00331673, Final residual = 6.19824e-07, No Iterations 4
diagonal:  Solving for rho, Initial residual = 0, Final residual = 0, No Iterations 0
time step continuity errors : sum local = 1.70357e-08, global = 2.38329e-09, cumulative = -2.60955e-07
DILUPBiCGStab:  Solving for omega, Initial residual = 8.71001e-05, Final residual = 1.30701e-09, No Iterations 2
DILUPBiCGStab:  Solving for k, Initial residual = 0.00410941, Final residual = 1.56369e-09, No Iterations 3

ExecutionTime = 5.52 s  ClockTime = 5 s

    Overall     = 0.00153172, 0.01
Time = 291

diagonal:  Solving for rho, Initial residual = 0, Final residual = 0, No Iterations 0

Execution time for mesh.update() = 0 s

DILUPBiCGStab:  Solving for Ux, Initial residual = 0.00436537, Final residual = 5.04838e-09, No Iterations 3
DILUPBiCGStab:  Solving for Uy, Initial residual = 0.00722869, Final residual = 7.30331e-09, No Iterations 3
DILUPBiCGStab:  Solving for O2, Initial residual = 0.00361666, Final residual = 3.39297e-09, No Iterations 3
DILUPBiCGStab:  Solving for H2O, Initial residual = 0.00361667, Final residual = 3.39297e-09, No Iterations 3
DILUPBiCGStab:  Solving for CH4, Initial residual = 0, Final residual = 0, No Iterations 0
DILUPBiCGStab:  Solving for CO2, Initial residual = 0.00361667, Final residual = 3.39297e-09, No Iterations 3
DILUPBiCGStab:  Solving for h, Initial residual = 0.00406053, Final residual = 3.47168e-09, No Iterations 3
min/max(T) = 300, 1044.97
GAMGPCG:  Solving for p_rgh, Initial residual = 0.0217297, Final residual = 3.64713e-07, No Iterations 5
diagonal:  Solving for rho, Initial residual = 0, Final residual = 0, No Iterations 0
time step continuity errors : sum local = 1.05427e-08, global = -8.77266e-10, cumulative = -2.61832e-07
GAMGPCG:  Solving for p_rgh, Initial residual = 0.00330207, Final residual = 6.01206e-07, No Iterations 4
diagonal:  Solving for rho, Initial residual = 0, Final residual = 0, No Iterations 0
time step continuity errors : sum local = 1.67789e-08, global = 2.3209e-09, cumulative = -2.59511e-07
DILUPBiCGStab:  Solving for omega, Initial residual = 8.64743e-05, Final residual = 1.2346e-09, No Iterations 2
DILUPBiCGStab:  Solving for k, Initial residual = 0.0040857, Final residual = 1.51579e-09, No Iterations 3

ExecutionTime = 5.63 s  ClockTime = 5 s

    Overall     = 0.00153483, 0.01
Time = 292

diagonal:  Solving for rho, Initial residual = 0, Final residual = 0, No Iterations 0

Execution time for mesh.update() = 0 s

DILUPBiCGStab:  Solving for Ux, Initial residual = 0.00436447, Final residual = 5.04078e-09, No Iterations 3
DILUPBiCGStab:  Solving for Uy, Initial residual = 0.00721395, Final residual = 7.53149e-09, No Iterations 3
DILUPBiCGStab:  Solving for O2, Initial residual = 0.00361396, Final residual = 3.27793e-09, No Iterations 3
DILUPBiCGStab:  Solving for H2O, Initial residual = 0.00361397, Final residual = 3.27793e-09, No Iterations 3
DILUPBiCGStab:  Solving for CH4, Initial residual = 0, Final residual = 0, No Iterations 0
DILUPBiCGStab:  Solving for CO2, Initial residual = 0.00361397, Final residual = 3.27793e-09, No Iterations 3
DILUPBiCGStab:  Solving for h, Initial residual = 0.00405854, Final residual = 3.3555e-09, No Iterations 3
min/max(T) = 300, 1044.97
GAMGPCG:  Solving for p_rgh, Initial residual = 0.0219252, Final residual = 3.6406e-07, No Iterations 5
diagonal:  Solving for rho, Initial residual = 0, Final residual = 0, No Iterations 0
time step continuity errors : sum local = 1.04809e-08, global = -1.11544e-09, cumulative = -2.60626e-07
GAMGPCG:  Solving for p_rgh, Initial residual = 0.00335034, Final residual = 5.8836e-07, No Iterations 4
diagonal:  Solving for rho, Initial residual = 0, Final residual = 0, No Iterations 0
time step continuity errors : sum local = 1.61455e-08, global = 2.41051e-09, cumulative = -2.58216e-07
DILUPBiCGStab:  Solving for omega, Initial residual = 8.63227e-05, Final residual = 1.31123e-09, No Iterations 2
DILUPBiCGStab:  Solving for k, Initial residual = 0.00407073, Final residual = 1.66033e-09, No Iterations 3

ExecutionTime = 5.75 s  ClockTime = 5 s

    Overall     = 0.00153663, 0.01
Time = 293

diagonal:  Solving for rho, Initial residual = 0, Final residual = 0, No Iterations 0

Execution time for mesh.update() = 0 s

[...]

Execution time for mesh.update() = 0 s

DILUPBiCGStab:  Solving for Ux, Initial residual = 0.00290856, Final residual = 2.87353e-09, No Iterations 3
DILUPBiCGStab:  Solving for Uy, Initial residual = 0.00287466, Final residual = 2.92864e-09, No Iterations 3
GAMGPCG:  Solving for G, Initial residual = 0.109545, Final residual = 2.60851e-05, No Iterations 6
DILUPBiCGStab:  Solving for O2, Initial residual = 0.00160715, Final residual = 1.56817e-09, No Iterations 3
DILUPBiCGStab:  Solving for H2O, Initial residual = 0.00160715, Final residual = 1.56817e-09, No Iterations 3
DILUPBiCGStab:  Solving for CH4, Initial residual = 0, Final residual = 0, No Iterations 0
DILUPBiCGStab:  Solving for CO2, Initial residual = 0.00160715, Final residual = 1.56817e-09, No Iterations 3
DILUPBiCGStab:  Solving for h, Initial residual = 0.00195932, Final residual = 2.1137e-09, No Iterations 3
min/max(T) = 300, 1044.97
GAMGPCG:  Solving for p_rgh, Initial residual = 0.0213931, Final residual = 2.00859e-07, No Iterations 5
diagonal:  Solving for rho, Initial residual = 0, Final residual = 0, No Iterations 0
time step continuity errors : sum local = 2.90376e-09, global = -1.06436e-10, cumulative = 3.8491e-07
GAMGPCG:  Solving for p_rgh, Initial residual = 0.00398206, Final residual = 3.29488e-07, No Iterations 4
diagonal:  Solving for rho, Initial residual = 0, Final residual = 0, No Iterations 0
time step continuity errors : sum local = 4.84562e-09, global = 8.0137e-10, cumulative = 3.85711e-07
DILUPBiCGStab:  Solving for omega, Initial residual = 5.03957e-05, Final residual = 6.80131e-10, No Iterations 2
DILUPBiCGStab:  Solving for k, Initial residual = 0.00213809, Final residual = 1.14502e-09, No Iterations 3

ExecutionTime = 289.08 s  ClockTime = 289 s

    Overall     = 0.00143485, 0.01
Time = 2491

diagonal:  Solving for rho, Initial residual = 0, Final residual = 0, No Iterations 0

Execution time for mesh.update() = 0 s

DILUPBiCGStab:  Solving for Ux, Initial residual = 0.00289913, Final residual = 3.13514e-09, No Iterations 3
DILUPBiCGStab:  Solving for Uy, Initial residual = 0.00284505, Final residual = 2.92497e-09, No Iterations 3
DILUPBiCGStab:  Solving for O2, Initial residual = 0.00157213, Final residual = 9.8182e-10, No Iterations 3
DILUPBiCGStab:  Solving for H2O, Initial residual = 0.00157213, Final residual = 9.8182e-10, No Iterations 3
DILUPBiCGStab:  Solving for CH4, Initial residual = 0, Final residual = 0, No Iterations 0
DILUPBiCGStab:  Solving for CO2, Initial residual = 0.00157213, Final residual = 9.8182e-10, No Iterations 3
DILUPBiCGStab:  Solving for h, Initial residual = 0.00191779, Final residual = 1.17642e-09, No Iterations 3
min/max(T) = 300, 1044.97
GAMGPCG:  Solving for p_rgh, Initial residual = 0.0226821, Final residual = 6.68575e-07, No Iterations 4
diagonal:  Solving for rho, Initial residual = 0, Final residual = 0, No Iterations 0
time step continuity errors : sum local = 1.00804e-08, global = 3.9266e-10, cumulative = 3.86104e-07
GAMGPCG:  Solving for p_rgh, Initial residual = 0.00378738, Final residual = 1.89705e-07, No Iterations 4
diagonal:  Solving for rho, Initial residual = 0, Final residual = 0, No Iterations 0
time step continuity errors : sum local = 2.99174e-09, global = 8.26931e-10, cumulative = 3.86931e-07
DILUPBiCGStab:  Solving for omega, Initial residual = 5.04701e-05, Final residual = 6.61928e-10, No Iterations 2
DILUPBiCGStab:  Solving for k, Initial residual = 0.00215376, Final residual = 1.12694e-09, No Iterations 3

ExecutionTime = 289.19 s  ClockTime = 289 s

    Overall     = 0.00146683, 0.01
Time = 2492

diagonal:  Solving for rho, Initial residual = 0, Final residual = 0, No Iterations 0

Execution time for mesh.update() = 0 s

DILUPBiCGStab:  Solving for Ux, Initial residual = 0.00290543, Final residual = 2.95263e-09, No Iterations 3
DILUPBiCGStab:  Solving for Uy, Initial residual = 0.00284322, Final residual = 2.87957e-09, No Iterations 3
DILUPBiCGStab:  Solving for O2, Initial residual = 0.00155469, Final residual = 1.25813e-09, No Iterations 3
DILUPBiCGStab:  Solving for H2O, Initial residual = 0.00155469, Final residual = 1.25813e-09, No Iterations 3
DILUPBiCGStab:  Solving for CH4, Initial residual = 0, Final residual = 0, No Iterations 0
DILUPBiCGStab:  Solving for CO2, Initial residual = 0.00155469, Final residual = 1.25813e-09, No Iterations 3
DILUPBiCGStab:  Solving for h, Initial residual = 0.00189238, Final residual = 1.7881e-09, No Iterations 3
min/max(T) = 300, 1044.97
GAMGPCG:  Solving for p_rgh, Initial residual = 0.0209101, Final residual = 9.08986e-07, No Iterations 4
diagonal:  Solving for rho, Initial residual = 0, Final residual = 0, No Iterations 0
time step continuity errors : sum local = 1.346e-08, global = -2.69703e-09, cumulative = 3.84234e-07
GAMGPCG:  Solving for p_rgh, Initial residual = 0.00416295, Final residual = 2.89253e-07, No Iterations 4
diagonal:  Solving for rho, Initial residual = 0, Final residual = 0, No Iterations 0
time step continuity errors : sum local = 4.51951e-09, global = 9.36614e-10, cumulative = 3.8517e-07
DILUPBiCGStab:  Solving for omega, Initial residual = 5.09449e-05, Final residual = 6.97378e-10, No Iterations 2
DILUPBiCGStab:  Solving for k, Initial residual = 0.00216038, Final residual = 1.13847e-09, No Iterations 3

ExecutionTime = 289.3 s  ClockTime = 289 s

    Overall     = 0.00143477, 0.01
Time = 2493

diagonal:  Solving for rho, Initial residual = 0, Final residual = 0, No Iterations 0

Execution time for mesh.update() = 0 s

DILUPBiCGStab:  Solving for Ux, Initial residual = 0.00285866, Final residual = 3.09101e-09, No Iterations 3
DILUPBiCGStab:  Solving for Uy, Initial residual = 0.00279603, Final residual = 2.94647e-09, No Iterations 3
DILUPBiCGStab:  Solving for O2, Initial residual = 0.00157422, Final residual = 8.96766e-10, No Iterations 3
DILUPBiCGStab:  Solving for H2O, Initial residual = 0.00157422, Final residual = 8.96765e-10, No Iterations 3
DILUPBiCGStab:  Solving for CH4, Initial residual = 0, Final residual = 0, No Iterations 0
DILUPBiCGStab:  Solving for CO2, Initial residual = 0.00157422, Final residual = 8.96765e-10, No Iterations 3
DILUPBiCGStab:  Solving for h, Initial residual = 0.00191718, Final residual = 1.00675e-09, No Iterations 3
min/max(T) = 300, 1044.97
GAMGPCG:  Solving for p_rgh, Initial residual = 0.0218176, Final residual = 8.57692e-07, No Iterations 4
diagonal:  Solving for rho, Initial residual = 0, Final residual = 0, No Iterations 0
time step continuity errors : sum local = 1.22827e-08, global = 1.33572e-09, cumulative = 3.86506e-07
GAMGPCG:  Solving for p_rgh, Initial residual = 0.00366764, Final residual = 2.31177e-07, No Iterations 4
diagonal:  Solving for rho, Initial residual = 0, Final residual = 0, No Iterations 0
time step continuity errors : sum local = 3.41159e-09, global = 9.71789e-10, cumulative = 3.87478e-07
DILUPBiCGStab:  Solving for omega, Initial residual = 5.06917e-05, Final residual = 7.12482e-10, No Iterations 2
DILUPBiCGStab:  Solving for k, Initial residual = 0.00217279, Final residual = 1.12909e-09, No Iterations 3

ExecutionTime = 289.41 s  ClockTime = 289 s

    Overall     = 0.00146429, 0.01
Time = 2494

diagonal:  Solving for rho, Initial residual = 0, Final residual = 0, No Iterations 0

Execution time for mesh.update() = 0 s

DILUPBiCGStab:  Solving for Ux, Initial residual = 0.00282423, Final residual = 2.91511e-09, No Iterations 3
DILUPBiCGStab:  Solving for Uy, Initial residual = 0.00281215, Final residual = 2.99326e-09, No Iterations 3
DILUPBiCGStab:  Solving for O2, Initial residual = 0.00153747, Final residual = 9.43418e-10, No Iterations 3
DILUPBiCGStab:  Solving for H2O, Initial residual = 0.00153747, Final residual = 9.43418e-10, No Iterations 3
DILUPBiCGStab:  Solving for CH4, Initial residual = 0, Final residual = 0, No Iterations 0
DILUPBiCGStab:  Solving for CO2, Initial residual = 0.00153747, Final residual = 9.43418e-10, No Iterations 3
DILUPBiCGStab:  Solving for h, Initial residual = 0.0018711, Final residual = 1.15477e-09, No Iterations 3
min/max(T) = 300, 1044.97
GAMGPCG:  Solving for p_rgh, Initial residual = 0.0232188, Final residual = 9.84697e-07, No Iterations 4
diagonal:  Solving for rho, Initial residual = 0, Final residual = 0, No Iterations 0
time step continuity errors : sum local = 1.50462e-08, global = -3.45073e-09, cumulative = 3.84027e-07
GAMGPCG:  Solving for p_rgh, Initial residual = 0.00386226, Final residual = 2.27368e-07, No Iterations 4
diagonal:  Solving for rho, Initial residual = 0, Final residual = 0, No Iterations 0
time step continuity errors : sum local = 3.44388e-09, global = 9.3739e-10, cumulative = 3.84965e-07
DILUPBiCGStab:  Solving for omega, Initial residual = 5.06544e-05, Final residual = 7.1399e-10, No Iterations 2
DILUPBiCGStab:  Solving for k, Initial residual = 0.00217402, Final residual = 1.14649e-09, No Iterations 3

ExecutionTime = 289.53 s  ClockTime = 289 s

    Overall     = 0.00142833, 0.01
Time = 2495

diagonal:  Solving for rho, Initial residual = 0, Final residual = 0, No Iterations 0

Execution time for mesh.update() = 0 s

DILUPBiCGStab:  Solving for Ux, Initial residual = 0.00279326, Final residual = 3.03739e-09, No Iterations 3
DILUPBiCGStab:  Solving for Uy, Initial residual = 0.00281471, Final residual = 2.98089e-09, No Iterations 3
DILUPBiCGStab:  Solving for O2, Initial residual = 0.0016002, Final residual = 2.30833e-09, No Iterations 3
DILUPBiCGStab:  Solving for H2O, Initial residual = 0.0016002, Final residual = 2.30833e-09, No Iterations 3
DILUPBiCGStab:  Solving for CH4, Initial residual = 0, Final residual = 0, No Iterations 0
DILUPBiCGStab:  Solving for CO2, Initial residual = 0.0016002, Final residual = 2.30833e-09, No Iterations 3
DILUPBiCGStab:  Solving for h, Initial residual = 0.0019482, Final residual = 2.46185e-09, No Iterations 3
min/max(T) = 300, 1044.97
GAMGPCG:  Solving for p_rgh, Initial residual = 0.020887, Final residual = 7.76339e-07, No Iterations 4
diagonal:  Solving for rho, Initial residual = 0, Final residual = 0, No Iterations 0
time step continuity errors : sum local = 1.09978e-08, global = 1.23758e-09, cumulative = 3.86202e-07
GAMGPCG:  Solving for p_rgh, Initial residual = 0.00397209, Final residual = 2.19396e-07, No Iterations 4
diagonal:  Solving for rho, Initial residual = 0, Final residual = 0, No Iterations 0
time step continuity errors : sum local = 3.23452e-09, global = 9.05815e-10, cumulative = 3.87108e-07
DILUPBiCGStab:  Solving for omega, Initial residual = 5.12805e-05, Final residual = 7.27598e-10, No Iterations 2
DILUPBiCGStab:  Solving for k, Initial residual = 0.00218108, Final residual = 1.20526e-09, No Iterations 3

ExecutionTime = 289.64 s  ClockTime = 289 s

    Overall     = 0.00145871, 0.01
Time = 2496

diagonal:  Solving for rho, Initial residual = 0, Final residual = 0, No Iterations 0

Execution time for mesh.update() = 0.01 s

DILUPBiCGStab:  Solving for Ux, Initial residual = 0.00275614, Final residual = 3.02189e-09, No Iterations 3
DILUPBiCGStab:  Solving for Uy, Initial residual = 0.00279062, Final residual = 2.96015e-09, No Iterations 3
DILUPBiCGStab:  Solving for O2, Initial residual = 0.00156482, Final residual = 1.34181e-09, No Iterations 3
DILUPBiCGStab:  Solving for H2O, Initial residual = 0.00156482, Final residual = 1.34181e-09, No Iterations 3
DILUPBiCGStab:  Solving for CH4, Initial residual = 0, Final residual = 0, No Iterations 0
DILUPBiCGStab:  Solving for CO2, Initial residual = 0.00156482, Final residual = 1.34181e-09, No Iterations 3
DILUPBiCGStab:  Solving for h, Initial residual = 0.00190357, Final residual = 1.71518e-09, No Iterations 3
min/max(T) = 300, 1044.97
GAMGPCG:  Solving for p_rgh, Initial residual = 0.0229966, Final residual = 1.89106e-07, No Iterations 5
diagonal:  Solving for rho, Initial residual = 0, Final residual = 0, No Iterations 0
time step continuity errors : sum local = 2.88392e-09, global = 9.44843e-11, cumulative = 3.87202e-07
GAMGPCG:  Solving for p_rgh, Initial residual = 0.00390067, Final residual = 3.61336e-07, No Iterations 4
diagonal:  Solving for rho, Initial residual = 0, Final residual = 0, No Iterations 0
time step continuity errors : sum local = 5.57429e-09, global = 9.11714e-10, cumulative = 3.88114e-07
DILUPBiCGStab:  Solving for omega, Initial residual = 5.11444e-05, Final residual = 7.14529e-10, No Iterations 2
DILUPBiCGStab:  Solving for k, Initial residual = 0.00217253, Final residual = 1.25407e-09, No Iterations 3

ExecutionTime = 289.76 s  ClockTime = 290 s

    Overall     = 0.00142518, 0.01
Time = 2497

diagonal:  Solving for rho, Initial residual = 0, Final residual = 0, No Iterations 0

Execution time for mesh.update() = 0 s

DILUPBiCGStab:  Solving for Ux, Initial residual = 0.00275277, Final residual = 2.87544e-09, No Iterations 3
DILUPBiCGStab:  Solving for Uy, Initial residual = 0.00277132, Final residual = 2.49234e-09, No Iterations 3
DILUPBiCGStab:  Solving for O2, Initial residual = 0.00161948, Final residual = 1.95476e-09, No Iterations 3
DILUPBiCGStab:  Solving for H2O, Initial residual = 0.00161948, Final residual = 1.95476e-09, No Iterations 3
DILUPBiCGStab:  Solving for CH4, Initial residual = 0, Final residual = 0, No Iterations 0
DILUPBiCGStab:  Solving for CO2, Initial residual = 0.00161948, Final residual = 1.95476e-09, No Iterations 3
DILUPBiCGStab:  Solving for h, Initial residual = 0.00196702, Final residual = 2.70201e-09, No Iterations 3
min/max(T) = 300, 1044.97
GAMGPCG:  Solving for p_rgh, Initial residual = 0.0212671, Final residual = 7.16379e-07, No Iterations 4
diagonal:  Solving for rho, Initial residual = 0, Final residual = 0, No Iterations 0
time step continuity errors : sum local = 1.02673e-08, global = 8.5462e-10, cumulative = 3.88969e-07
GAMGPCG:  Solving for p_rgh, Initial residual = 0.0039242, Final residual = 2.8868e-07, No Iterations 4
diagonal:  Solving for rho, Initial residual = 0, Final residual = 0, No Iterations 0
time step continuity errors : sum local = 4.39553e-09, global = 1.02902e-09, cumulative = 3.89998e-07
DILUPBiCGStab:  Solving for omega, Initial residual = 5.1567e-05, Final residual = 7.04502e-10, No Iterations 2
DILUPBiCGStab:  Solving for k, Initial residual = 0.00219076, Final residual = 1.27304e-09, No Iterations 3

ExecutionTime = 289.88 s  ClockTime = 290 s

    Overall     = 0.00146323, 0.01
Time = 2498

diagonal:  Solving for rho, Initial residual = 0, Final residual = 0, No Iterations 0

Execution time for mesh.update() = 0 s

DILUPBiCGStab:  Solving for Ux, Initial residual = 0.00276714, Final residual = 2.94188e-09, No Iterations 3
DILUPBiCGStab:  Solving for Uy, Initial residual = 0.00278593, Final residual = 2.73031e-09, No Iterations 3
DILUPBiCGStab:  Solving for O2, Initial residual = 0.0016474, Final residual = 2.31817e-09, No Iterations 3
DILUPBiCGStab:  Solving for H2O, Initial residual = 0.0016474, Final residual = 2.31817e-09, No Iterations 3
DILUPBiCGStab:  Solving for CH4, Initial residual = 0, Final residual = 0, No Iterations 0
DILUPBiCGStab:  Solving for CO2, Initial residual = 0.0016474, Final residual = 2.31817e-09, No Iterations 3
DILUPBiCGStab:  Solving for h, Initial residual = 0.00200262, Final residual = 3.22827e-09, No Iterations 3
min/max(T) = 300, 1044.97
GAMGPCG:  Solving for p_rgh, Initial residual = 0.024612, Final residual = 2.45427e-07, No Iterations 5
diagonal:  Solving for rho, Initial residual = 0, Final residual = 0, No Iterations 0
time step continuity errors : sum local = 3.75031e-09, global = -2.22595e-11, cumulative = 3.89976e-07
GAMGPCG:  Solving for p_rgh, Initial residual = 0.00388803, Final residual = 4.78693e-07, No Iterations 4
diagonal:  Solving for rho, Initial residual = 0, Final residual = 0, No Iterations 0
time step continuity errors : sum local = 7.52704e-09, global = 9.49466e-10, cumulative = 3.90925e-07
DILUPBiCGStab:  Solving for omega, Initial residual = 5.05612e-05, Final residual = 7.16521e-10, No Iterations 2
DILUPBiCGStab:  Solving for k, Initial residual = 0.00216352, Final residual = 1.33807e-09, No Iterations 3

ExecutionTime = 289.99 s  ClockTime = 290 s

    Overall     = 0.0014361, 0.01
Time = 2499

diagonal:  Solving for rho, Initial residual = 0, Final residual = 0, No Iterations 0

Execution time for mesh.update() = 0 s

DILUPBiCGStab:  Solving for Ux, Initial residual = 0.00278636, Final residual = 2.94944e-09, No Iterations 3
DILUPBiCGStab:  Solving for Uy, Initial residual = 0.00275892, Final residual = 2.1863e-09, No Iterations 3
DILUPBiCGStab:  Solving for O2, Initial residual = 0.00168314, Final residual = 1.45469e-09, No Iterations 3
DILUPBiCGStab:  Solving for H2O, Initial residual = 0.00168314, Final residual = 1.45469e-09, No Iterations 3
DILUPBiCGStab:  Solving for CH4, Initial residual = 0, Final residual = 0, No Iterations 0
DILUPBiCGStab:  Solving for CO2, Initial residual = 0.00168314, Final residual = 1.45469e-09, No Iterations 3
DILUPBiCGStab:  Solving for h, Initial residual = 0.00204736, Final residual = 1.7748e-09, No Iterations 3
min/max(T) = 300, 1044.97
GAMGPCG:  Solving for p_rgh, Initial residual = 0.0237885, Final residual = 8.07009e-07, No Iterations 4
diagonal:  Solving for rho, Initial residual = 0, Final residual = 0, No Iterations 0
time step continuity errors : sum local = 1.2141e-08, global = 8.21905e-11, cumulative = 3.91007e-07
GAMGPCG:  Solving for p_rgh, Initial residual = 0.00405945, Final residual = 3.51563e-07, No Iterations 4
diagonal:  Solving for rho, Initial residual = 0, Final residual = 0, No Iterations 0
time step continuity errors : sum local = 5.72202e-09, global = 8.89675e-10, cumulative = 3.91897e-07
DILUPBiCGStab:  Solving for omega, Initial residual = 5.09772e-05, Final residual = 7.23029e-10, No Iterations 2
DILUPBiCGStab:  Solving for k, Initial residual = 0.00218214, Final residual = 1.37406e-09, No Iterations 3

ExecutionTime = 290.12 s  ClockTime = 290 s

    Overall     = 0.00148028, 0.01
Time = 2500

diagonal:  Solving for rho, Initial residual = 0, Final residual = 0, No Iterations 0

Execution time for mesh.update() = 0 s

DILUPBiCGStab:  Solving for Ux, Initial residual = 0.00278502, Final residual = 2.97401e-09, No Iterations 3
DILUPBiCGStab:  Solving for Uy, Initial residual = 0.00278428, Final residual = 2.72525e-09, No Iterations 3
GAMGPCG:  Solving for G, Initial residual = 0.11294, Final residual = 6.77189e-05, No Iterations 6
DILUPBiCGStab:  Solving for O2, Initial residual = 0.00167181, Final residual = 1.5575e-09, No Iterations 3
DILUPBiCGStab:  Solving for H2O, Initial residual = 0.00167181, Final residual = 1.5575e-09, No Iterations 3
DILUPBiCGStab:  Solving for CH4, Initial residual = 0, Final residual = 0, No Iterations 0
DILUPBiCGStab:  Solving for CO2, Initial residual = 0.00167181, Final residual = 1.5575e-09, No Iterations 3
DILUPBiCGStab:  Solving for h, Initial residual = 0.00203441, Final residual = 2.24562e-09, No Iterations 3
min/max(T) = 300, 1044.97
GAMGPCG:  Solving for p_rgh, Initial residual = 0.0261904, Final residual = 2.07376e-07, No Iterations 5
diagonal:  Solving for rho, Initial residual = 0, Final residual = 0, No Iterations 0
time step continuity errors : sum local = 3.2322e-09, global = -7.218e-13, cumulative = 3.91896e-07
GAMGPCG:  Solving for p_rgh, Initial residual = 0.00410738, Final residual = 4.37701e-07, No Iterations 4
diagonal:  Solving for rho, Initial residual = 0, Final residual = 0, No Iterations 0
time step continuity errors : sum local = 7.12303e-09, global = 6.07536e-10, cumulative = 3.92504e-07
DILUPBiCGStab:  Solving for omega, Initial residual = 5.0698e-05, Final residual = 7.0803e-10, No Iterations 2
DILUPBiCGStab:  Solving for k, Initial residual = 0.00218401, Final residual = 1.46777e-09, No Iterations 3

ExecutionTime = 290.37 s  ClockTime = 290 s


Patch Mean : 300.733
Patch Variance : 0.00201432
Patch Gradient : 0.0513119
End
