/*---------------------------------------------------------------------------*\
  =========                 |
  \\      /  F ield         | OpenFOAM: The Open Source CFD Toolbox
   \\    /   O peration     | Website:  https://openfoam.org
    \\  /    A nd           | Version:  dev
     \\/     M anipulation  |
\*---------------------------------------------------------------------------*/
Build  : dev-cabe48fb62c1
Exec   : fireDyMFoam
Date   : Apr 15 2019
Time   : 12:54:53
Host   : "Host"
PID    : 2300
I/O    : uncollated
Case   : /home/tesla/OpenFOAM/tesla-dev/run/rollerOpt_COBYLA_NEW
nProcs : 1
sigFpe : Enabling floating point exception trapping (FOAM_SIGFPE).
fileModificationChecking : Monitoring run-time modified files using timeStampMaster (fileModificationSkew 10)
allowSystemOperations : Allowing user-supplied system call operations

// * * * * * * * * * * * * * * * * * * * * * * * * * * * * * * * * * * * * * //
Create time

--> FOAM Warning : 
    From function void* Foam::dlOpen(const Foam::fileName&, bool)
    in file POSIX.C at line 1268
    dlopen error : libgroovyBC.so: cannot open shared object file: No such file or directory
--> FOAM Warning : 
    From function bool Foam::dlLibraryTable::open(const Foam::fileName&, bool)
    in file db/dynamicLibrary/dlLibraryTable/dlLibraryTable.C at line 105
    could not load "libgroovyBC.so"
Create mesh for time = 250

Selecting dynamicFvMesh dynamicRefineFvMesh
Detected 538 cells that are protected from refinement. Writing these to cellSet protectedCells.

PIMPLE: No convergence criteria found


PIMPLE: Operating solver in PISO mode


Initializing Solver

Selecting thermodynamics package 
{
    type            hePsiThermo;
    mixture         reactingMixture;
    transport       sutherland;
    thermo          janaf;
    energy          sensibleEnthalpy;
    equationOfState perfectGas;
    specie          specie;
}

Selecting chemistryReader foamChemistryReader
    elements not defined in "/home/tesla/OpenFOAM/tesla-dev/run/rollerOpt_COBYLA_NEW/constant/reactions"
Reading/calculating face flux field phi

No MRF models present

Selecting turbulence model type RAS
Selecting RAS turbulence model kOmegaSST
Selecting patchDistMethod meshWave
kOmegaSSTCoeffs
{
    delta           cubeRootVol;
    cubeRootVolCoeffs
    {
        deltaCoeff      1;
    }
    alphaK1         0.85;
    alphaK2         1;
    alphaOmega1     0.5;
    alphaOmega2     0.856;
    gamma1          0.555556;
    gamma2          0.44;
    beta1           0.075;
    beta2           0.0828;
    betaStar        0.09;
    a1              0.31;
    b1              1;
    c1              10;
    F3              false;
}

Selecting combustion model none<psiThermoCombustion>
--> FOAM Warning : 
    From function static Foam::autoPtr<T> Foam::combustionModel::New(typename CombustionModel::reactionThermo&, const Foam::compressibleTurbulenceModel&, const Foam::word&) [with CombustionModel = Foam::CombustionModel<Foam::psiReactionThermo>; typename CombustionModel::reactionThermo = Foam::psiReactionThermo]
    in file /home/tesla/OpenFOAM/OpenFOAM-dev/src/combustionModels/lnInclude/combustionModelTemplates.C at line 69
    Template parameters are no longer required when selecting a combustionModel. This information is now obtained directly from the thermodynamics. Actually selecting combustion model none.

Reading g

Reading hRef
Calculating field g.h


Reading pRef
Selecting radiationModel P1
Selecting absorptionEmissionModel greyMeanAbsorptionEmission
Selecting scatterModel none
Selecting sootModel none
Creating finite volume options from "system/fvOptions"

No finite volume options present
Using LTS

Starting time loop

Using dynamicCode for functionObject patchCalcs at line 64 in "/home/tesla/OpenFOAM/tesla-dev/run/rollerOpt_COBYLA_NEW/system/controlDict.functions.patchCalcs"
    Overall     = 0.00133329, 0.01
Time = 251

diagonal:  Solving for rho, Initial residual = 0, Final residual = 0, No Iterations 0

Execution time for mesh.update() = 0 s

DILUPBiCGStab:  Solving for Ux, Initial residual = 0.00420678, Final residual = 3.9715e-09, No Iterations 3
DILUPBiCGStab:  Solving for Uy, Initial residual = 0.00763335, Final residual = 9.22423e-09, No Iterations 3
GAMGPCG:  Solving for G, Initial residual = 0.0273385, Final residual = 4.05238e-05, No Iterations 4
DILUPBiCGStab:  Solving for O2, Initial residual = 0.00278328, Final residual = 1.98609e-09, No Iterations 3
DILUPBiCGStab:  Solving for H2O, Initial residual = 0.00278399, Final residual = 1.98607e-09, No Iterations 3
DILUPBiCGStab:  Solving for CH4, Initial residual = 0, Final residual = 0, No Iterations 0
DILUPBiCGStab:  Solving for CO2, Initial residual = 0.00278398, Final residual = 1.98607e-09, No Iterations 3
DILUPBiCGStab:  Solving for h, Initial residual = 0.00306611, Final residual = 1.50537e-09, No Iterations 3
min/max(T) = 299.301, 1044.98
GAMGPCG:  Solving for p_rgh, Initial residual = 0.0183902, Final residual = 9.61514e-08, No Iterations 5
diagonal:  Solving for rho, Initial residual = 0, Final residual = 0, No Iterations 0
time step continuity errors : sum local = 2.46026e-06, global = -1.50157e-07, cumulative = -1.50157e-07
GAMGPCG:  Solving for p_rgh, Initial residual = 0.00250444, Final residual = 2.80338e-07, No Iterations 4
diagonal:  Solving for rho, Initial residual = 0, Final residual = 0, No Iterations 0
time step continuity errors : sum local = 2.46031e-06, global = -1.49046e-07, cumulative = -2.99203e-07
DILUPBiCGStab:  Solving for omega, Initial residual = 8.85198e-05, Final residual = 1.28766e-09, No Iterations 2
DILUPBiCGStab:  Solving for k, Initial residual = 0.00429553, Final residual = 1.74604e-09, No Iterations 3

ExecutionTime = 0.37 s  ClockTime = 1 s

    Overall     = 0.00133583, 0.01
Time = 252

diagonal:  Solving for rho, Initial residual = 0, Final residual = 0, No Iterations 0

Execution time for mesh.update() = 0 s

DILUPBiCGStab:  Solving for Ux, Initial residual = 0.00418267, Final residual = 3.80922e-09, No Iterations 3
DILUPBiCGStab:  Solving for Uy, Initial residual = 0.00764457, Final residual = 7.49102e-09, No Iterations 3
DILUPBiCGStab:  Solving for O2, Initial residual = 0.00278506, Final residual = 1.85835e-09, No Iterations 3
DILUPBiCGStab:  Solving for H2O, Initial residual = 0.00278527, Final residual = 1.85834e-09, No Iterations 3
DILUPBiCGStab:  Solving for CH4, Initial residual = 0, Final residual = 0, No Iterations 0
DILUPBiCGStab:  Solving for CO2, Initial residual = 0.00278526, Final residual = 1.85834e-09, No Iterations 3
DILUPBiCGStab:  Solving for h, Initial residual = 0.00306986, Final residual = 1.49927e-09, No Iterations 3
min/max(T) = 299.312, 1044.98
GAMGPCG:  Solving for p_rgh, Initial residual = 0.0183963, Final residual = 1.03684e-07, No Iterations 5
diagonal:  Solving for rho, Initial residual = 0, Final residual = 0, No Iterations 0
time step continuity errors : sum local = 4.64965e-09, global = -2.93649e-10, cumulative = -2.99497e-07
GAMGPCG:  Solving for p_rgh, Initial residual = 0.00237274, Final residual = 2.82132e-07, No Iterations 4
diagonal:  Solving for rho, Initial residual = 0, Final residual = 0, No Iterations 0
time step continuity errors : sum local = 1.18925e-08, global = 8.45255e-10, cumulative = -2.98651e-07
DILUPBiCGStab:  Solving for omega, Initial residual = 8.89049e-05, Final residual = 1.38435e-09, No Iterations 2
DILUPBiCGStab:  Solving for k, Initial residual = 0.00432394, Final residual = 1.87893e-09, No Iterations 3

ExecutionTime = 0.49 s  ClockTime = 1 s

    Overall     = 0.00132989, 0.01
Time = 253

diagonal:  Solving for rho, Initial residual = 0, Final residual = 0, No Iterations 0

Execution time for mesh.update() = 0 s

DILUPBiCGStab:  Solving for Ux, Initial residual = 0.00417063, Final residual = 4.08207e-09, No Iterations 3
DILUPBiCGStab:  Solving for Uy, Initial residual = 0.00766364, Final residual = 7.85324e-09, No Iterations 3
DILUPBiCGStab:  Solving for O2, Initial residual = 0.00279045, Final residual = 2.24082e-09, No Iterations 3
DILUPBiCGStab:  Solving for H2O, Initial residual = 0.00279122, Final residual = 2.24055e-09, No Iterations 3
DILUPBiCGStab:  Solving for CH4, Initial residual = 0, Final residual = 0, No Iterations 0
DILUPBiCGStab:  Solving for CO2, Initial residual = 0.00279122, Final residual = 2.24055e-09, No Iterations 3
DILUPBiCGStab:  Solving for h, Initial residual = 0.00307537, Final residual = 1.7205e-09, No Iterations 3
min/max(T) = 299.304, 1044.98
GAMGPCG:  Solving for p_rgh, Initial residual = 0.0179627, Final residual = 1.16815e-07, No Iterations 5
diagonal:  Solving for rho, Initial residual = 0, Final residual = 0, No Iterations 0
time step continuity errors : sum local = 5.18133e-09, global = -3.46783e-10, cumulative = -2.98998e-07
GAMGPCG:  Solving for p_rgh, Initial residual = 0.00240952, Final residual = 3.00511e-07, No Iterations 4
diagonal:  Solving for rho, Initial residual = 0, Final residual = 0, No Iterations 0
time step continuity errors : sum local = 1.25837e-08, global = 8.52385e-10, cumulative = -2.98146e-07
DILUPBiCGStab:  Solving for omega, Initial residual = 8.90194e-05, Final residual = 1.41919e-09, No Iterations 2
DILUPBiCGStab:  Solving for k, Initial residual = 0.00435195, Final residual = 2.49426e-09, No Iterations 3

ExecutionTime = 0.62 s  ClockTime = 1 s

    Overall     = 0.00133232, 0.01
Time = 254

diagonal:  Solving for rho, Initial residual = 0, Final residual = 0, No Iterations 0

Execution time for mesh.update() = 0 s

DILUPBiCGStab:  Solving for Ux, Initial residual = 0.00415135, Final residual = 4.12219e-09, No Iterations 3
DILUPBiCGStab:  Solving for Uy, Initial residual = 0.0076301, Final residual = 7.16056e-09, No Iterations 3
DILUPBiCGStab:  Solving for O2, Initial residual = 0.00278896, Final residual = 2.28019e-09, No Iterations 3
DILUPBiCGStab:  Solving for H2O, Initial residual = 0.00278922, Final residual = 2.28015e-09, No Iterations 3
DILUPBiCGStab:  Solving for CH4, Initial residual = 0, Final residual = 0, No Iterations 0
DILUPBiCGStab:  Solving for CO2, Initial residual = 0.00278922, Final residual = 2.28015e-09, No Iterations 3
DILUPBiCGStab:  Solving for h, Initial residual = 0.00307628, Final residual = 1.86939e-09, No Iterations 3
min/max(T) = 299.312, 1044.98
GAMGPCG:  Solving for p_rgh, Initial residual = 0.0180256, Final residual = 1.20151e-07, No Iterations 5
diagonal:  Solving for rho, Initial residual = 0, Final residual = 0, No Iterations 0
time step continuity errors : sum local = 5.35954e-09, global = -2.11104e-10, cumulative = -2.98357e-07
GAMGPCG:  Solving for p_rgh, Initial residual = 0.00234445, Final residual = 3.11552e-07, No Iterations 4
diagonal:  Solving for rho, Initial residual = 0, Final residual = 0, No Iterations 0
time step continuity errors : sum local = 1.31334e-08, global = 1.05775e-09, cumulative = -2.97299e-07
DILUPBiCGStab:  Solving for omega, Initial residual = 8.86061e-05, Final residual = 1.41166e-09, No Iterations 2
DILUPBiCGStab:  Solving for k, Initial residual = 0.00437501, Final residual = 4.23496e-09, No Iterations 3

ExecutionTime = 0.74 s  ClockTime = 1 s

    Overall     = 0.00132611, 0.01
Time = 255

diagonal:  Solving for rho, Initial residual = 0, Final residual = 0, No Iterations 0

Execution time for mesh.update() = 0 s

DILUPBiCGStab:  Solving for Ux, Initial residual = 0.00415822, Final residual = 4.81253e-09, No Iterations 3
DILUPBiCGStab:  Solving for Uy, Initial residual = 0.00765062, Final residual = 7.66748e-09, No Iterations 3
DILUPBiCGStab:  Solving for O2, Initial residual = 0.00279073, Final residual = 2.54013e-09, No Iterations 3
DILUPBiCGStab:  Solving for H2O, Initial residual = 0.00279151, Final residual = 2.53981e-09, No Iterations 3
DILUPBiCGStab:  Solving for CH4, Initial residual = 0, Final residual = 0, No Iterations 0
DILUPBiCGStab:  Solving for CO2, Initial residual = 0.00279151, Final residual = 2.53981e-09, No Iterations 3
DILUPBiCGStab:  Solving for h, Initial residual = 0.00308129, Final residual = 2.17128e-09, No Iterations 3
min/max(T) = 299.308, 1044.98
GAMGPCG:  Solving for p_rgh, Initial residual = 0.0178769, Final residual = 1.15403e-07, No Iterations 5
diagonal:  Solving for rho, Initial residual = 0, Final residual = 0, No Iterations 0
time step continuity errors : sum local = 5.14102e-09, global = -3.54292e-10, cumulative = -2.97653e-07
GAMGPCG:  Solving for p_rgh, Initial residual = 0.00240204, Final residual = 3.31704e-07, No Iterations 4
diagonal:  Solving for rho, Initial residual = 0, Final residual = 0, No Iterations 0
time step continuity errors : sum local = 1.39643e-08, global = 1.18274e-09, cumulative = -2.96471e-07
DILUPBiCGStab:  Solving for omega, Initial residual = 8.8328e-05, Final residual = 1.53943e-09, No Iterations 2
DILUPBiCGStab:  Solving for k, Initial residual = 0.00439587, Final residual = 8.81383e-09, No Iterations 3

ExecutionTime = 0.85 s  ClockTime = 1 s

    Overall     = 0.0013291, 0.01
Time = 256

diagonal:  Solving for rho, Initial residual = 0, Final residual = 0, No Iterations 0

Execution time for mesh.update() = 0 s

DILUPBiCGStab:  Solving for Ux, Initial residual = 0.00413789, Final residual = 4.90047e-09, No Iterations 3
DILUPBiCGStab:  Solving for Uy, Initial residual = 0.00762656, Final residual = 6.60632e-09, No Iterations 3
DILUPBiCGStab:  Solving for O2, Initial residual = 0.00278849, Final residual = 2.35979e-09, No Iterations 3
DILUPBiCGStab:  Solving for H2O, Initial residual = 0.00278874, Final residual = 2.3598e-09, No Iterations 3
DILUPBiCGStab:  Solving for CH4, Initial residual = 0, Final residual = 0, No Iterations 0
DILUPBiCGStab:  Solving for CO2, Initial residual = 0.00278874, Final residual = 2.3598e-09, No Iterations 3
DILUPBiCGStab:  Solving for h, Initial residual = 0.00308097, Final residual = 2.17195e-09, No Iterations 3
min/max(T) = 299.323, 1044.98
GAMGPCG:  Solving for p_rgh, Initial residual = 0.0179799, Final residual = 1.21572e-07, No Iterations 5
diagonal:  Solving for rho, Initial residual = 0, Final residual = 0, No Iterations 0
time step continuity errors : sum local = 5.46272e-09, global = -1.55724e-10, cumulative = -2.96626e-07
GAMGPCG:  Solving for p_rgh, Initial residual = 0.00232994, Final residual = 3.41983e-07, No Iterations 4
diagonal:  Solving for rho, Initial residual = 0, Final residual = 0, No Iterations 0
time step continuity errors : sum local = 1.44803e-08, global = 1.4233e-09, cumulative = -2.95203e-07
DILUPBiCGStab:  Solving for omega, Initial residual = 8.80755e-05, Final residual = 1.54997e-09, No Iterations 2
DILUPBiCGStab:  Solving for k, Initial residual = 0.00441375, Final residual = 4.07015e-09, No Iterations 3

ExecutionTime = 0.97 s  ClockTime = 1 s

    Overall     = 0.00132285, 0.01
Time = 257

diagonal:  Solving for rho, Initial residual = 0, Final residual = 0, No Iterations 0

Execution time for mesh.update() = 0 s

DILUPBiCGStab:  Solving for Ux, Initial residual = 0.00414145, Final residual = 5.20578e-09, No Iterations 3
DILUPBiCGStab:  Solving for Uy, Initial residual = 0.00764389, Final residual = 6.31791e-09, No Iterations 3
DILUPBiCGStab:  Solving for O2, Initial residual = 0.0027865, Final residual = 2.79666e-09, No Iterations 3
DILUPBiCGStab:  Solving for H2O, Initial residual = 0.00278727, Final residual = 2.79653e-09, No Iterations 3
DILUPBiCGStab:  Solving for CH4, Initial residual = 0, Final residual = 0, No Iterations 0
DILUPBiCGStab:  Solving for CO2, Initial residual = 0.00278727, Final residual = 2.79653e-09, No Iterations 3
DILUPBiCGStab:  Solving for h, Initial residual = 0.00307969, Final residual = 2.57272e-09, No Iterations 3
min/max(T) = 299.317, 1044.98
GAMGPCG:  Solving for p_rgh, Initial residual = 0.0178095, Final residual = 1.44436e-07, No Iterations 5
diagonal:  Solving for rho, Initial residual = 0, Final residual = 0, No Iterations 0
time step continuity errors : sum local = 6.41474e-09, global = -3.99192e-10, cumulative = -2.95602e-07
GAMGPCG:  Solving for p_rgh, Initial residual = 0.00239625, Final residual = 3.49045e-07, No Iterations 4
diagonal:  Solving for rho, Initial residual = 0, Final residual = 0, No Iterations 0
time step continuity errors : sum local = 1.47466e-08, global = 1.48138e-09, cumulative = -2.94121e-07
DILUPBiCGStab:  Solving for omega, Initial residual = 8.78231e-05, Final residual = 1.57306e-09, No Iterations 2
DILUPBiCGStab:  Solving for k, Initial residual = 0.0044321, Final residual = 4.96924e-09, No Iterations 3

ExecutionTime = 1.09 s  ClockTime = 1 s

    Overall     = 0.00132566, 0.01
Time = 258

diagonal:  Solving for rho, Initial residual = 0, Final residual = 0, No Iterations 0

Execution time for mesh.update() = 0 s

DILUPBiCGStab:  Solving for Ux, Initial residual = 0.00412075, Final residual = 5.36398e-09, No Iterations 3
DILUPBiCGStab:  Solving for Uy, Initial residual = 0.00760372, Final residual = 6.56854e-09, No Iterations 3
DILUPBiCGStab:  Solving for O2, Initial residual = 0.00278985, Final residual = 2.79049e-09, No Iterations 3
DILUPBiCGStab:  Solving for H2O, Initial residual = 0.00279012, Final residual = 2.7907e-09, No Iterations 3
DILUPBiCGStab:  Solving for CH4, Initial residual = 0, Final residual = 0, No Iterations 0
DILUPBiCGStab:  Solving for CO2, Initial residual = 0.00279012, Final residual = 2.7907e-09, No Iterations 3
DILUPBiCGStab:  Solving for h, Initial residual = 0.00308546, Final residual = 2.64528e-09, No Iterations 3
min/max(T) = 299.331, 1044.98
GAMGPCG:  Solving for p_rgh, Initial residual = 0.0180181, Final residual = 1.1931e-07, No Iterations 5
diagonal:  Solving for rho, Initial residual = 0, Final residual = 0, No Iterations 0
time step continuity errors : sum local = 5.42496e-09, global = -5.72132e-10, cumulative = -2.94693e-07
GAMGPCG:  Solving for p_rgh, Initial residual = 0.00233706, Final residual = 3.62153e-07, No Iterations 4
diagonal:  Solving for rho, Initial residual = 0, Final residual = 0, No Iterations 0
time step continuity errors : sum local = 1.53557e-08, global = 1.61759e-09, cumulative = -2.93075e-07
DILUPBiCGStab:  Solving for omega, Initial residual = 8.76306e-05, Final residual = 1.61496e-09, No Iterations 2
DILUPBiCGStab:  Solving for k, Initial residual = 0.0044463, Final residual = 5.85274e-09, No Iterations 3

ExecutionTime = 1.21 s  ClockTime = 1 s

    Overall     = 0.00131918, 0.01
Time = 259

diagonal:  Solving for rho, Initial residual = 0, Final residual = 0, No Iterations 0

Execution time for mesh.update() = 0 s

DILUPBiCGStab:  Solving for Ux, Initial residual = 0.0041204, Final residual = 5.79125e-09, No Iterations 3
DILUPBiCGStab:  Solving for Uy, Initial residual = 0.00763596, Final residual = 6.85649e-09, No Iterations 3
DILUPBiCGStab:  Solving for O2, Initial residual = 0.0027912, Final residual = 3.0394e-09, No Iterations 3
DILUPBiCGStab:  Solving for H2O, Initial residual = 0.00279198, Final residual = 3.03916e-09, No Iterations 3
DILUPBiCGStab:  Solving for CH4, Initial residual = 0, Final residual = 0, No Iterations 0
DILUPBiCGStab:  Solving for CO2, Initial residual = 0.00279198, Final residual = 3.03915e-09, No Iterations 3
DILUPBiCGStab:  Solving for h, Initial residual = 0.00309106, Final residual = 2.93391e-09, No Iterations 3
min/max(T) = 299.326, 1044.98
GAMGPCG:  Solving for p_rgh, Initial residual = 0.0179803, Final residual = 1.41077e-07, No Iterations 5
diagonal:  Solving for rho, Initial residual = 0, Final residual = 0, No Iterations 0
time step continuity errors : sum local = 6.34168e-09, global = -8.57271e-10, cumulative = -2.93933e-07
GAMGPCG:  Solving for p_rgh, Initial residual = 0.00241772, Final residual = 3.69369e-07, No Iterations 4
diagonal:  Solving for rho, Initial residual = 0, Final residual = 0, No Iterations 0
time step continuity errors : sum local = 1.56261e-08, global = 1.5734e-09, cumulative = -2.92359e-07
DILUPBiCGStab:  Solving for omega, Initial residual = 8.6921e-05, Final residual = 1.63465e-09, No Iterations 2
DILUPBiCGStab:  Solving for k, Initial residual = 0.0044585, Final residual = 6.96472e-09, No Iterations 3

ExecutionTime = 1.33 s  ClockTime = 2 s

    Overall     = 0.00132237, 0.01
Time = 260

diagonal:  Solving for rho, Initial residual = 0, Final residual = 0, No Iterations 0

Execution time for mesh.update() = 0 s

DILUPBiCGStab:  Solving for Ux, Initial residual = 0.00411619, Final residual = 6.02605e-09, No Iterations 3
DILUPBiCGStab:  Solving for Uy, Initial residual = 0.00761782, Final residual = 7.92225e-09, No Iterations 3
GAMGPCG:  Solving for G, Initial residual = 0.115881, Final residual = 3.66245e-05, No Iterations 6
DILUPBiCGStab:  Solving for O2, Initial residual = 0.00279374, Final residual = 3.53291e-09, No Iterations 3
DILUPBiCGStab:  Solving for H2O, Initial residual = 0.00279399, Final residual = 3.53343e-09, No Iterations 3
DILUPBiCGStab:  Solving for CH4, Initial residual = 0, Final residual = 0, No Iterations 0
DILUPBiCGStab:  Solving for CO2, Initial residual = 0.00279399, Final residual = 3.53342e-09, No Iterations 3
DILUPBiCGStab:  Solving for h, Initial residual = 0.00309607, Final residual = 3.29051e-09, No Iterations 3
min/max(T) = 299.346, 1044.98
GAMGPCG:  Solving for p_rgh, Initial residual = 0.0179095, Final residual = 1.44728e-07, No Iterations 5
diagonal:  Solving for rho, Initial residual = 0, Final residual = 0, No Iterations 0
time step continuity errors : sum local = 6.51124e-09, global = -7.55322e-10, cumulative = -2.93115e-07
GAMGPCG:  Solving for p_rgh, Initial residual = 0.00236391, Final residual = 3.71916e-07, No Iterations 4
diagonal:  Solving for rho, Initial residual = 0, Final residual = 0, No Iterations 0
time step continuity errors : sum local = 1.57576e-08, global = 1.53825e-09, cumulative = -2.91576e-07
DILUPBiCGStab:  Solving for omega, Initial residual = 8.66733e-05, Final residual = 1.62554e-09, No Iterations 2
DILUPBiCGStab:  Solving for k, Initial residual = 0.00448886, Final residual = 2.31435e-09, No Iterations 3

ExecutionTime = 1.59 s  ClockTime = 2 s

    Overall     = 0.00131581, 0.01
Time = 261

diagonal:  Solving for rho, Initial residual = 0, Final residual = 0, No Iterations 0

Execution time for mesh.update() = 0 s

DILUPBiCGStab:  Solving for Ux, Initial residual = 0.00411806, Final residual = 6.60945e-09, No Iterations 3
DILUPBiCGStab:  Solving for Uy, Initial residual = 0.00761954, Final residual = 8.30665e-09, No Iterations 3
DILUPBiCGStab:  Solving for O2, Initial residual = 0.00280144, Final residual = 2.77552e-09, No Iterations 3
DILUPBiCGStab:  Solving for H2O, Initial residual = 0.00280221, Final residual = 2.77497e-09, No Iterations 3
DILUPBiCGStab:  Solving for CH4, Initial residual = 0, Final residual = 0, No Iterations 0
DILUPBiCGStab:  Solving for CO2, Initial residual = 0.0028022, Final residual = 2.77496e-09, No Iterations 3
DILUPBiCGStab:  Solving for h, Initial residual = 0.00310481, Final residual = 2.78838e-09, No Iterations 3
min/max(T) = 299.341, 1044.98
GAMGPCG:  Solving for p_rgh, Initial residual = 0.017632, Final residual = 1.5985e-07, No Iterations 5
diagonal:  Solving for rho, Initial residual = 0, Final residual = 0, No Iterations 0
time step continuity errors : sum local = 7.09722e-09, global = -4.89041e-10, cumulative = -2.92065e-07
GAMGPCG:  Solving for p_rgh, Initial residual = 0.0024114, Final residual = 3.53012e-07, No Iterations 4
diagonal:  Solving for rho, Initial residual = 0, Final residual = 0, No Iterations 0
time step continuity errors : sum local = 1.50017e-08, global = 1.37061e-09, cumulative = -2.90695e-07
DILUPBiCGStab:  Solving for omega, Initial residual = 8.61667e-05, Final residual = 1.59462e-09, No Iterations 2
DILUPBiCGStab:  Solving for k, Initial residual = 0.00451274, Final residual = 6.28391e-09, No Iterations 3

ExecutionTime = 1.71 s  ClockTime = 2 s

    Overall     = 0.00131883, 0.01
Time = 262

diagonal:  Solving for rho, Initial residual = 0, Final residual = 0, No Iterations 0

Execution time for mesh.update() = 0 s

DILUPBiCGStab:  Solving for Ux, Initial residual = 0.00410487, Final residual = 6.94331e-09, No Iterations 3
DILUPBiCGStab:  Solving for Uy, Initial residual = 0.00760246, Final residual = 8.47722e-09, No Iterations 3
DILUPBiCGStab:  Solving for O2, Initial residual = 0.00280309, Final residual = 2.7987e-09, No Iterations 3
DILUPBiCGStab:  Solving for H2O, Initial residual = 0.00280336, Final residual = 2.79909e-09, No Iterations 3
DILUPBiCGStab:  Solving for CH4, Initial residual = 0, Final residual = 0, No Iterations 0
DILUPBiCGStab:  Solving for CO2, Initial residual = 0.00280336, Final residual = 2.79909e-09, No Iterations 3
DILUPBiCGStab:  Solving for h, Initial residual = 0.00311065, Final residual = 2.79692e-09, No Iterations 3
min/max(T) = 299.36, 1044.98
GAMGPCG:  Solving for p_rgh, Initial residual = 0.0179133, Final residual = 1.72864e-07, No Iterations 5
diagonal:  Solving for rho, Initial residual = 0, Final residual = 0, No Iterations 0
time step continuity errors : sum local = 7.65647e-09, global = -6.1153e-10, cumulative = -2.91306e-07
GAMGPCG:  Solving for p_rgh, Initial residual = 0.00233756, Final residual = 3.6788e-07, No Iterations 4
diagonal:  Solving for rho, Initial residual = 0, Final residual = 0, No Iterations 0
time step continuity errors : sum local = 1.56284e-08, global = 1.58771e-09, cumulative = -2.89719e-07
DILUPBiCGStab:  Solving for omega, Initial residual = 8.61706e-05, Final residual = 1.49972e-09, No Iterations 2
DILUPBiCGStab:  Solving for k, Initial residual = 0.0045357, Final residual = 1.32011e-09, No Iterations 3

ExecutionTime = 1.83 s  ClockTime = 2 s

    Overall     = 0.00131204, 0.01
Time = 263

diagonal:  Solving for rho, Initial residual = 0, Final residual = 0, No Iterations 0

Execution time for mesh.update() = 0.01 s

DILUPBiCGStab:  Solving for Ux, Initial residual = 0.0041093, Final residual = 7.09773e-09, No Iterations 3
DILUPBiCGStab:  Solving for Uy, Initial residual = 0.00761932, Final residual = 8.46663e-09, No Iterations 3
DILUPBiCGStab:  Solving for O2, Initial residual = 0.00280615, Final residual = 2.39057e-09, No Iterations 3
DILUPBiCGStab:  Solving for H2O, Initial residual = 0.00280691, Final residual = 2.39025e-09, No Iterations 3
DILUPBiCGStab:  Solving for CH4, Initial residual = 0, Final residual = 0, No Iterations 0
DILUPBiCGStab:  Solving for CO2, Initial residual = 0.0028069, Final residual = 2.39025e-09, No Iterations 3
DILUPBiCGStab:  Solving for h, Initial residual = 0.00311731, Final residual = 2.40855e-09, No Iterations 3
min/max(T) = 299.358, 1044.98
GAMGPCG:  Solving for p_rgh, Initial residual = 0.0177118, Final residual = 1.74916e-07, No Iterations 5
diagonal:  Solving for rho, Initial residual = 0, Final residual = 0, No Iterations 0
time step continuity errors : sum local = 7.73934e-09, global = -6.25566e-10, cumulative = -2.90344e-07
GAMGPCG:  Solving for p_rgh, Initial residual = 0.00239359, Final residual = 3.57934e-07, No Iterations 4
diagonal:  Solving for rho, Initial residual = 0, Final residual = 0, No Iterations 0
time step continuity errors : sum local = 1.51823e-08, global = 1.7541e-09, cumulative = -2.8859e-07
DILUPBiCGStab:  Solving for omega, Initial residual = 8.56831e-05, Final residual = 1.47033e-09, No Iterations 2
DILUPBiCGStab:  Solving for k, Initial residual = 0.00454842, Final residual = 2.60355e-09, No Iterations 3

ExecutionTime = 1.95 s  ClockTime = 2 s

    Overall     = 0.00131539, 0.01
Time = 264

diagonal:  Solving for rho, Initial residual = 0, Final residual = 0, No Iterations 0

Execution time for mesh.update() = 0.01 s

DILUPBiCGStab:  Solving for Ux, Initial residual = 0.00408151, Final residual = 6.04428e-09, No Iterations 3
DILUPBiCGStab:  Solving for Uy, Initial residual = 0.00758393, Final residual = 8.75543e-09, No Iterations 3
DILUPBiCGStab:  Solving for O2, Initial residual = 0.0028144, Final residual = 2.8889e-09, No Iterations 3
DILUPBiCGStab:  Solving for H2O, Initial residual = 0.0028147, Final residual = 2.88923e-09, No Iterations 3
DILUPBiCGStab:  Solving for CH4, Initial residual = 0, Final residual = 0, No Iterations 0
DILUPBiCGStab:  Solving for CO2, Initial residual = 0.0028147, Final residual = 2.88923e-09, No Iterations 3
DILUPBiCGStab:  Solving for h, Initial residual = 0.00312667, Final residual = 2.80665e-09, No Iterations 3
min/max(T) = 299.384, 1044.98
GAMGPCG:  Solving for p_rgh, Initial residual = 0.0179185, Final residual = 1.8454e-07, No Iterations 5
diagonal:  Solving for rho, Initial residual = 0, Final residual = 0, No Iterations 0
time step continuity errors : sum local = 8.13104e-09, global = -6.70197e-10, cumulative = -2.8926e-07
GAMGPCG:  Solving for p_rgh, Initial residual = 0.00234584, Final residual = 3.69894e-07, No Iterations 4
diagonal:  Solving for rho, Initial residual = 0, Final residual = 0, No Iterations 0
time step continuity errors : sum local = 1.56376e-08, global = 2.1055e-09, cumulative = -2.87155e-07
DILUPBiCGStab:  Solving for omega, Initial residual = 8.55516e-05, Final residual = 1.47028e-09, No Iterations 2
DILUPBiCGStab:  Solving for k, Initial residual = 0.00456361, Final residual = 1.7801e-09, No Iterations 3

ExecutionTime = 2.07 s  ClockTime = 2 s

    Overall     = 0.0013087, 0.01
Time = 265

diagonal:  Solving for rho, Initial residual = 0, Final residual = 0, No Iterations 0

Execution time for mesh.update() = 0 s

DILUPBiCGStab:  Solving for Ux, Initial residual = 0.00408405, Final residual = 5.49515e-09, No Iterations 3
DILUPBiCGStab:  Solving for Uy, Initial residual = 0.00757285, Final residual = 9.02621e-09, No Iterations 3
DILUPBiCGStab:  Solving for O2, Initial residual = 0.00282186, Final residual = 3.03096e-09, No Iterations 3
DILUPBiCGStab:  Solving for H2O, Initial residual = 0.0028226, Final residual = 3.03066e-09, No Iterations 3
DILUPBiCGStab:  Solving for CH4, Initial residual = 0, Final residual = 0, No Iterations 0
DILUPBiCGStab:  Solving for CO2, Initial residual = 0.0028226, Final residual = 3.03066e-09, No Iterations 3
DILUPBiCGStab:  Solving for h, Initial residual = 0.00313589, Final residual = 2.90249e-09, No Iterations 3
min/max(T) = 299.394, 1044.98
GAMGPCG:  Solving for p_rgh, Initial residual = 0.0176248, Final residual = 1.74791e-07, No Iterations 5
diagonal:  Solving for rho, Initial residual = 0, Final residual = 0, No Iterations 0
time step continuity errors : sum local = 7.71821e-09, global = -6.17785e-10, cumulative = -2.87773e-07
GAMGPCG:  Solving for p_rgh, Initial residual = 0.00239696, Final residual = 3.52765e-07, No Iterations 4
diagonal:  Solving for rho, Initial residual = 0, Final residual = 0, No Iterations 0
time step continuity errors : sum local = 1.48895e-08, global = 2.0788e-09, cumulative = -2.85694e-07
DILUPBiCGStab:  Solving for omega, Initial residual = 8.55065e-05, Final residual = 1.53611e-09, No Iterations 2
DILUPBiCGStab:  Solving for k, Initial residual = 0.00458491, Final residual = 4.48257e-09, No Iterations 3

ExecutionTime = 2.19 s  ClockTime = 2 s

    Overall     = 0.00131157, 0.01
Time = 266

diagonal:  Solving for rho, Initial residual = 0, Final residual = 0, No Iterations 0

Execution time for mesh.update() = 0 s

DILUPBiCGStab:  Solving for Ux, Initial residual = 0.00407196, Final residual = 5.27485e-09, No Iterations 3
DILUPBiCGStab:  Solving for Uy, Initial residual = 0.00755011, Final residual = 9.15743e-10, No Iterations 3
DILUPBiCGStab:  Solving for O2, Initial residual = 0.00282615, Final residual = 2.98887e-09, No Iterations 3
DILUPBiCGStab:  Solving for H2O, Initial residual = 0.00282639, Final residual = 2.98918e-09, No Iterations 3
DILUPBiCGStab:  Solving for CH4, Initial residual = 0, Final residual = 0, No Iterations 0
DILUPBiCGStab:  Solving for CO2, Initial residual = 0.00282639, Final residual = 2.98918e-09, No Iterations 3
DILUPBiCGStab:  Solving for h, Initial residual = 0.00314202, Final residual = 2.89196e-09, No Iterations 3
min/max(T) = 299.438, 1044.98
GAMGPCG:  Solving for p_rgh, Initial residual = 0.0176745, Final residual = 1.77467e-07, No Iterations 5
diagonal:  Solving for rho, Initial residual = 0, Final residual = 0, No Iterations 0
time step continuity errors : sum local = 7.80309e-09, global = -2.73303e-10, cumulative = -2.85967e-07
GAMGPCG:  Solving for p_rgh, Initial residual = 0.00234838, Final residual = 3.54501e-07, No Iterations 4
diagonal:  Solving for rho, Initial residual = 0, Final residual = 0, No Iterations 0
time step continuity errors : sum local = 1.48808e-08, global = 2.36428e-09, cumulative = -2.83603e-07
DILUPBiCGStab:  Solving for omega, Initial residual = 8.49695e-05, Final residual = 1.5787e-09, No Iterations 2
DILUPBiCGStab:  Solving for k, Initial residual = 0.00461621, Final residual = 3.36173e-09, No Iterations 3

ExecutionTime = 2.31 s  ClockTime = 2 s

    Overall     = 0.00130436, 0.01
Time = 267

diagonal:  Solving for rho, Initial residual = 0, Final residual = 0, No Iterations 0

Execution time for mesh.update() = 0 s

DILUPBiCGStab:  Solving for Ux, Initial residual = 0.00407493, Final residual = 5.69564e-09, No Iterations 3
DILUPBiCGStab:  Solving for Uy, Initial residual = 0.00754212, Final residual = 9.48578e-10, No Iterations 3
DILUPBiCGStab:  Solving for O2, Initial residual = 0.00283219, Final residual = 2.9346e-09, No Iterations 3
DILUPBiCGStab:  Solving for H2O, Initial residual = 0.00283287, Final residual = 2.93439e-09, No Iterations 3
DILUPBiCGStab:  Solving for CH4, Initial residual = 0, Final residual = 0, No Iterations 0
DILUPBiCGStab:  Solving for CO2, Initial residual = 0.00283287, Final residual = 2.93439e-09, No Iterations 3
DILUPBiCGStab:  Solving for h, Initial residual = 0.00315125, Final residual = 2.8957e-09, No Iterations 3
min/max(T) = 299.444, 1044.98
GAMGPCG:  Solving for p_rgh, Initial residual = 0.0176827, Final residual = 1.56532e-07, No Iterations 5
diagonal:  Solving for rho, Initial residual = 0, Final residual = 0, No Iterations 0
time step continuity errors : sum local = 6.91475e-09, global = -1.06602e-10, cumulative = -2.83709e-07
GAMGPCG:  Solving for p_rgh, Initial residual = 0.00236815, Final residual = 3.49721e-07, No Iterations 4
diagonal:  Solving for rho, Initial residual = 0, Final residual = 0, No Iterations 0
time step continuity errors : sum local = 1.4744e-08, global = 2.41751e-09, cumulative = -2.81292e-07
DILUPBiCGStab:  Solving for omega, Initial residual = 8.4901e-05, Final residual = 1.67113e-09, No Iterations 2
DILUPBiCGStab:  Solving for k, Initial residual = 0.00463404, Final residual = 4.12223e-09, No Iterations 3

ExecutionTime = 2.43 s  ClockTime = 3 s

    Overall     = 0.001307, 0.01
Time = 268

diagonal:  Solving for rho, Initial residual = 0, Final residual = 0, No Iterations 0

Execution time for mesh.update() = 0 s

DILUPBiCGStab:  Solving for Ux, Initial residual = 0.00407063, Final residual = 5.87293e-09, No Iterations 3
DILUPBiCGStab:  Solving for Uy, Initial residual = 0.00751609, Final residual = 1.0111e-09, No Iterations 3
DILUPBiCGStab:  Solving for O2, Initial residual = 0.00283746, Final residual = 3.18423e-09, No Iterations 3
DILUPBiCGStab:  Solving for H2O, Initial residual = 0.00283765, Final residual = 3.18462e-09, No Iterations 3
DILUPBiCGStab:  Solving for CH4, Initial residual = 0, Final residual = 0, No Iterations 0
DILUPBiCGStab:  Solving for CO2, Initial residual = 0.00283765, Final residual = 3.18462e-09, No Iterations 3
DILUPBiCGStab:  Solving for h, Initial residual = 0.00315884, Final residual = 3.12757e-09, No Iterations 3
min/max(T) = 299.49, 1044.98
GAMGPCG:  Solving for p_rgh, Initial residual = 0.0177226, Final residual = 9.85913e-07, No Iterations 4
diagonal:  Solving for rho, Initial residual = 0, Final residual = 0, No Iterations 0
time step continuity errors : sum local = 4.25974e-08, global = -6.67131e-09, cumulative = -2.87963e-07
GAMGPCG:  Solving for p_rgh, Initial residual = 0.00230871, Final residual = 3.5144e-07, No Iterations 4
diagonal:  Solving for rho, Initial residual = 0, Final residual = 0, No Iterations 0
time step continuity errors : sum local = 1.48061e-08, global = 2.64926e-09, cumulative = -2.85314e-07
DILUPBiCGStab:  Solving for omega, Initial residual = 8.4307e-05, Final residual = 1.70017e-09, No Iterations 2
DILUPBiCGStab:  Solving for k, Initial residual = 0.00465062, Final residual = 4.55142e-09, No Iterations 3

ExecutionTime = 2.55 s  ClockTime = 3 s

    Overall     = 0.00129989, 0.01
Time = 269

diagonal:  Solving for rho, Initial residual = 0, Final residual = 0, No Iterations 0

Execution time for mesh.update() = 0 s

DILUPBiCGStab:  Solving for Ux, Initial residual = 0.00406664, Final residual = 6.16695e-09, No Iterations 3
DILUPBiCGStab:  Solving for Uy, Initial residual = 0.0075114, Final residual = 9.9637e-09, No Iterations 3
DILUPBiCGStab:  Solving for O2, Initial residual = 0.00284621, Final residual = 3.43577e-09, No Iterations 3
DILUPBiCGStab:  Solving for H2O, Initial residual = 0.00284684, Final residual = 3.4353e-09, No Iterations 3
DILUPBiCGStab:  Solving for CH4, Initial residual = 0, Final residual = 0, No Iterations 0
DILUPBiCGStab:  Solving for CO2, Initial residual = 0.00284684, Final residual = 3.4353e-09, No Iterations 3
DILUPBiCGStab:  Solving for h, Initial residual = 0.00317192, Final residual = 3.46516e-09, No Iterations 3
min/max(T) = 299.497, 1044.98
GAMGPCG:  Solving for p_rgh, Initial residual = 0.0175832, Final residual = 8.78332e-07, No Iterations 4
diagonal:  Solving for rho, Initial residual = 0, Final residual = 0, No Iterations 0
time step continuity errors : sum local = 3.82299e-08, global = -6.63103e-09, cumulative = -2.91945e-07
GAMGPCG:  Solving for p_rgh, Initial residual = 0.00238009, Final residual = 3.20433e-07, No Iterations 4
diagonal:  Solving for rho, Initial residual = 0, Final residual = 0, No Iterations 0
time step continuity errors : sum local = 1.35009e-08, global = 2.2742e-09, cumulative = -2.89671e-07
DILUPBiCGStab:  Solving for omega, Initial residual = 8.4295e-05, Final residual = 1.74582e-09, No Iterations 2
DILUPBiCGStab:  Solving for k, Initial residual = 0.00466745, Final residual = 5.12632e-09, No Iterations 3

ExecutionTime = 2.66 s  ClockTime = 3 s

    Overall     = 0.00130217, 0.01
Time = 270

diagonal:  Solving for rho, Initial residual = 0, Final residual = 0, No Iterations 0

Execution time for mesh.update() = 0 s

DILUPBiCGStab:  Solving for Ux, Initial residual = 0.00406204, Final residual = 5.60494e-09, No Iterations 3
DILUPBiCGStab:  Solving for Uy, Initial residual = 0.00747615, Final residual = 9.26988e-10, No Iterations 3
GAMGPCG:  Solving for G, Initial residual = 0.136212, Final residual = 6.99204e-05, No Iterations 5
DILUPBiCGStab:  Solving for O2, Initial residual = 0.00285924, Final residual = 4.48757e-09, No Iterations 3
DILUPBiCGStab:  Solving for H2O, Initial residual = 0.0028594, Final residual = 4.48798e-09, No Iterations 3
DILUPBiCGStab:  Solving for CH4, Initial residual = 0, Final residual = 0, No Iterations 0
DILUPBiCGStab:  Solving for CO2, Initial residual = 0.0028594, Final residual = 4.48798e-09, No Iterations 3
DILUPBiCGStab:  Solving for h, Initial residual = 0.00318333, Final residual = 4.6933e-09, No Iterations 3
min/max(T) = 299.546, 1044.98
GAMGPCG:  Solving for p_rgh, Initial residual = 0.0173063, Final residual = 7.53874e-07, No Iterations 4
diagonal:  Solving for rho, Initial residual = 0, Final residual = 0, No Iterations 0
time step continuity errors : sum local = 3.26712e-08, global = -4.75771e-09, cumulative = -2.94428e-07
GAMGPCG:  Solving for p_rgh, Initial residual = 0.00232557, Final residual = 3.02729e-07, No Iterations 4
diagonal:  Solving for rho, Initial residual = 0, Final residual = 0, No Iterations 0
time step continuity errors : sum local = 1.27321e-08, global = 2.31762e-09, cumulative = -2.92111e-07
DILUPBiCGStab:  Solving for omega, Initial residual = 8.39151e-05, Final residual = 1.69451e-09, No Iterations 2
DILUPBiCGStab:  Solving for k, Initial residual = 0.00468256, Final residual = 8.84407e-10, No Iterations 3

ExecutionTime = 2.91 s  ClockTime = 3 s

    Overall     = 0.00129515, 0.01
Time = 271

diagonal:  Solving for rho, Initial residual = 0, Final residual = 0, No Iterations 0

Execution time for mesh.update() = 0 s

DILUPBiCGStab:  Solving for Ux, Initial residual = 0.00405153, Final residual = 5.15553e-09, No Iterations 3
DILUPBiCGStab:  Solving for Uy, Initial residual = 0.00746761, Final residual = 8.88151e-10, No Iterations 3
DILUPBiCGStab:  Solving for O2, Initial residual = 0.0028644, Final residual = 7.6487e-09, No Iterations 3
DILUPBiCGStab:  Solving for H2O, Initial residual = 0.00286497, Final residual = 7.64735e-09, No Iterations 3
DILUPBiCGStab:  Solving for CH4, Initial residual = 0, Final residual = 0, No Iterations 0
DILUPBiCGStab:  Solving for CO2, Initial residual = 0.00286497, Final residual = 7.64736e-09, No Iterations 3
DILUPBiCGStab:  Solving for h, Initial residual = 0.00319537, Final residual = 8.05852e-09, No Iterations 3
min/max(T) = 299.555, 1044.98
GAMGPCG:  Solving for p_rgh, Initial residual = 0.0174639, Final residual = 7.18732e-07, No Iterations 4
diagonal:  Solving for rho, Initial residual = 0, Final residual = 0, No Iterations 0
time step continuity errors : sum local = 3.14672e-08, global = -6.06268e-09, cumulative = -2.98173e-07
GAMGPCG:  Solving for p_rgh, Initial residual = 0.00235886, Final residual = 2.78432e-07, No Iterations 4
diagonal:  Solving for rho, Initial residual = 0, Final residual = 0, No Iterations 0
time step continuity errors : sum local = 1.17919e-08, global = 2.08327e-09, cumulative = -2.9609e-07
DILUPBiCGStab:  Solving for omega, Initial residual = 8.38082e-05, Final residual = 1.63357e-09, No Iterations 2
DILUPBiCGStab:  Solving for k, Initial residual = 0.00468996, Final residual = 9.78316e-10, No Iterations 3

ExecutionTime = 3.03 s  ClockTime = 3 s

    Overall     = 0.00129697, 0.01
Time = 272

diagonal:  Solving for rho, Initial residual = 0, Final residual = 0, No Iterations 0

Execution time for mesh.update() = 0 s

DILUPBiCGStab:  Solving for Ux, Initial residual = 0.00404374, Final residual = 5.41478e-09, No Iterations 3
DILUPBiCGStab:  Solving for Uy, Initial residual = 0.00742866, Final residual = 9.68501e-10, No Iterations 3
DILUPBiCGStab:  Solving for O2, Initial residual = 0.00287225, Final residual = 1.19416e-09, No Iterations 3
DILUPBiCGStab:  Solving for H2O, Initial residual = 0.00287236, Final residual = 1.19282e-09, No Iterations 3
DILUPBiCGStab:  Solving for CH4, Initial residual = 0, Final residual = 0, No Iterations 0
DILUPBiCGStab:  Solving for CO2, Initial residual = 0.00287235, Final residual = 1.19282e-09, No Iterations 3
DILUPBiCGStab:  Solving for h, Initial residual = 0.0032043, Final residual = 1.97201e-09, No Iterations 3
min/max(T) = 299.61, 1044.98
GAMGPCG:  Solving for p_rgh, Initial residual = 0.0171432, Final residual = 6.84838e-07, No Iterations 4
diagonal:  Solving for rho, Initial residual = 0, Final residual = 0, No Iterations 0
time step continuity errors : sum local = 2.98889e-08, global = -5.03939e-09, cumulative = -3.0113e-07
GAMGPCG:  Solving for p_rgh, Initial residual = 0.00230869, Final residual = 2.58058e-07, No Iterations 4
diagonal:  Solving for rho, Initial residual = 0, Final residual = 0, No Iterations 0
time step continuity errors : sum local = 1.09247e-08, global = 1.98029e-09, cumulative = -2.99149e-07
DILUPBiCGStab:  Solving for omega, Initial residual = 8.33387e-05, Final residual = 1.51636e-09, No Iterations 2
DILUPBiCGStab:  Solving for k, Initial residual = 0.00470835, Final residual = 2.59161e-11, No Iterations 4

ExecutionTime = 3.15 s  ClockTime = 3 s

    Overall     = 0.0012902, 0.01
Time = 273

diagonal:  Solving for rho, Initial residual = 0, Final residual = 0, No Iterations 0

Execution time for mesh.update() = 0 s

DILUPBiCGStab:  Solving for Ux, Initial residual = 0.00403563, Final residual = 5.29738e-09, No Iterations 3
DILUPBiCGStab:  Solving for Uy, Initial residual = 0.00741233, Final residual = 9.20596e-09, No Iterations 3
DILUPBiCGStab:  Solving for O2, Initial residual = 0.00287512, Final residual = 5.02228e-09, No Iterations 3
DILUPBiCGStab:  Solving for H2O, Initial residual = 0.00287562, Final residual = 5.02107e-09, No Iterations 3
DILUPBiCGStab:  Solving for CH4, Initial residual = 0, Final residual = 0, No Iterations 0
DILUPBiCGStab:  Solving for CO2, Initial residual = 0.00287562, Final residual = 5.02108e-09, No Iterations 3
DILUPBiCGStab:  Solving for h, Initial residual = 0.00320996, Final residual = 6.64666e-09, No Iterations 3
min/max(T) = 299.616, 1044.98
GAMGPCG:  Solving for p_rgh, Initial residual = 0.0173295, Final residual = 7.24624e-07, No Iterations 4
diagonal:  Solving for rho, Initial residual = 0, Final residual = 0, No Iterations 0
time step continuity errors : sum local = 3.20713e-08, global = -4.74083e-09, cumulative = -3.0389e-07
GAMGPCG:  Solving for p_rgh, Initial residual = 0.00233528, Final residual = 2.65554e-07, No Iterations 4
diagonal:  Solving for rho, Initial residual = 0, Final residual = 0, No Iterations 0
time step continuity errors : sum local = 1.12398e-08, global = 1.76883e-09, cumulative = -3.02121e-07
DILUPBiCGStab:  Solving for omega, Initial residual = 8.30828e-05, Final residual = 1.42031e-09, No Iterations 2
DILUPBiCGStab:  Solving for k, Initial residual = 0.0047203, Final residual = 1.88769e-09, No Iterations 3

ExecutionTime = 3.27 s  ClockTime = 3 s

    Overall     = 0.00129143, 0.01
Time = 274

diagonal:  Solving for rho, Initial residual = 0, Final residual = 0, No Iterations 0

Execution time for mesh.update() = 0 s

DILUPBiCGStab:  Solving for Ux, Initial residual = 0.0040336, Final residual = 6.23953e-09, No Iterations 3
DILUPBiCGStab:  Solving for Uy, Initial residual = 0.00739069, Final residual = 8.8546e-09, No Iterations 3
DILUPBiCGStab:  Solving for O2, Initial residual = 0.00287902, Final residual = 2.8679e-09, No Iterations 3
DILUPBiCGStab:  Solving for H2O, Initial residual = 0.00287908, Final residual = 2.86836e-09, No Iterations 3
DILUPBiCGStab:  Solving for CH4, Initial residual = 0, Final residual = 0, No Iterations 0
DILUPBiCGStab:  Solving for CO2, Initial residual = 0.00287908, Final residual = 2.86836e-09, No Iterations 3
DILUPBiCGStab:  Solving for h, Initial residual = 0.0032154, Final residual = 3.22599e-09, No Iterations 3
min/max(T) = 299.674, 1044.98
GAMGPCG:  Solving for p_rgh, Initial residual = 0.0169846, Final residual = 6.91794e-07, No Iterations 4
diagonal:  Solving for rho, Initial residual = 0, Final residual = 0, No Iterations 0
time step continuity errors : sum local = 3.06333e-08, global = -4.54656e-09, cumulative = -3.06668e-07
GAMGPCG:  Solving for p_rgh, Initial residual = 0.00228334, Final residual = 2.59031e-07, No Iterations 4
diagonal:  Solving for rho, Initial residual = 0, Final residual = 0, No Iterations 0
time step continuity errors : sum local = 1.09671e-08, global = 1.63884e-09, cumulative = -3.05029e-07
DILUPBiCGStab:  Solving for omega, Initial residual = 8.25575e-05, Final residual = 1.36762e-09, No Iterations 2
DILUPBiCGStab:  Solving for k, Initial residual = 0.0047399, Final residual = 1.84492e-09, No Iterations 3

ExecutionTime = 3.38 s  ClockTime = 4 s

    Overall     = 0.00128515, 0.01
Time = 275

diagonal:  Solving for rho, Initial residual = 0, Final residual = 0, No Iterations 0

Execution time for mesh.update() = 0 s

DILUPBiCGStab:  Solving for Ux, Initial residual = 0.0040262, Final residual = 5.96414e-09, No Iterations 3
DILUPBiCGStab:  Solving for Uy, Initial residual = 0.00736352, Final residual = 8.07979e-09, No Iterations 3
DILUPBiCGStab:  Solving for O2, Initial residual = 0.00287551, Final residual = 2.38903e-09, No Iterations 3
DILUPBiCGStab:  Solving for H2O, Initial residual = 0.00287594, Final residual = 2.38887e-09, No Iterations 3
DILUPBiCGStab:  Solving for CH4, Initial residual = 0, Final residual = 0, No Iterations 0
DILUPBiCGStab:  Solving for CO2, Initial residual = 0.00287594, Final residual = 2.38887e-09, No Iterations 3
DILUPBiCGStab:  Solving for h, Initial residual = 0.00321685, Final residual = 2.61657e-09, No Iterations 3
min/max(T) = 299.676, 1044.98
GAMGPCG:  Solving for p_rgh, Initial residual = 0.0174574, Final residual = 8.80692e-07, No Iterations 4
diagonal:  Solving for rho, Initial residual = 0, Final residual = 0, No Iterations 0
time step continuity errors : sum local = 3.94399e-08, global = -3.40815e-09, cumulative = -3.08437e-07
GAMGPCG:  Solving for p_rgh, Initial residual = 0.00230848, Final residual = 2.84329e-07, No Iterations 4
diagonal:  Solving for rho, Initial residual = 0, Final residual = 0, No Iterations 0
time step continuity errors : sum local = 1.20103e-08, global = 1.41856e-09, cumulative = -3.07019e-07
DILUPBiCGStab:  Solving for omega, Initial residual = 8.18367e-05, Final residual = 1.2664e-09, No Iterations 2
DILUPBiCGStab:  Solving for k, Initial residual = 0.00475674, Final residual = 2.20472e-11, No Iterations 4

ExecutionTime = 3.5 s  ClockTime = 4 s

    Overall     = 0.00128595, 0.01
Time = 276

diagonal:  Solving for rho, Initial residual = 0, Final residual = 0, No Iterations 0

Execution time for mesh.update() = 0 s

DILUPBiCGStab:  Solving for Ux, Initial residual = 0.00402771, Final residual = 5.62646e-09, No Iterations 3
DILUPBiCGStab:  Solving for Uy, Initial residual = 0.0073323, Final residual = 7.39553e-09, No Iterations 3
DILUPBiCGStab:  Solving for O2, Initial residual = 0.00287578, Final residual = 2.02462e-09, No Iterations 3
DILUPBiCGStab:  Solving for H2O, Initial residual = 0.00287582, Final residual = 2.02481e-09, No Iterations 3
DILUPBiCGStab:  Solving for CH4, Initial residual = 0, Final residual = 0, No Iterations 0
DILUPBiCGStab:  Solving for CO2, Initial residual = 0.00287582, Final residual = 2.02481e-09, No Iterations 3
DILUPBiCGStab:  Solving for h, Initial residual = 0.00321497, Final residual = 2.25513e-09, No Iterations 3
min/max(T) = 299.733, 1044.98
GAMGPCG:  Solving for p_rgh, Initial residual = 0.0169214, Final residual = 8.25641e-07, No Iterations 4
diagonal:  Solving for rho, Initial residual = 0, Final residual = 0, No Iterations 0
time step continuity errors : sum local = 3.67099e-08, global = -2.56973e-09, cumulative = -3.09588e-07
GAMGPCG:  Solving for p_rgh, Initial residual = 0.00231942, Final residual = 3.09408e-07, No Iterations 4
diagonal:  Solving for rho, Initial residual = 0, Final residual = 0, No Iterations 0
time step continuity errors : sum local = 1.30265e-08, global = 1.37761e-09, cumulative = -3.08211e-07
DILUPBiCGStab:  Solving for omega, Initial residual = 8.1077e-05, Final residual = 1.21502e-09, No Iterations 2
DILUPBiCGStab:  Solving for k, Initial residual = 0.00476915, Final residual = 2.33082e-09, No Iterations 3

ExecutionTime = 3.62 s  ClockTime = 4 s

    Overall     = 0.00128041, 0.01
Time = 277

diagonal:  Solving for rho, Initial residual = 0, Final residual = 0, No Iterations 0

Execution time for mesh.update() = 0 s

DILUPBiCGStab:  Solving for Ux, Initial residual = 0.00402017, Final residual = 5.21236e-09, No Iterations 3
DILUPBiCGStab:  Solving for Uy, Initial residual = 0.00731823, Final residual = 7.0397e-09, No Iterations 3
DILUPBiCGStab:  Solving for O2, Initial residual = 0.00288236, Final residual = 1.80801e-09, No Iterations 3
DILUPBiCGStab:  Solving for H2O, Initial residual = 0.00288272, Final residual = 1.80793e-09, No Iterations 3
DILUPBiCGStab:  Solving for CH4, Initial residual = 0, Final residual = 0, No Iterations 0
DILUPBiCGStab:  Solving for CO2, Initial residual = 0.00288272, Final residual = 1.80793e-09, No Iterations 3
DILUPBiCGStab:  Solving for h, Initial residual = 0.00322438, Final residual = 1.94307e-09, No Iterations 3
min/max(T) = 299.73, 1044.98
GAMGPCG:  Solving for p_rgh, Initial residual = 0.0174438, Final residual = 9.72026e-07, No Iterations 4
diagonal:  Solving for rho, Initial residual = 0, Final residual = 0, No Iterations 0
time step continuity errors : sum local = 4.28319e-08, global = -2.46297e-09, cumulative = -3.10674e-07
GAMGPCG:  Solving for p_rgh, Initial residual = 0.00235755, Final residual = 3.45038e-07, No Iterations 4
diagonal:  Solving for rho, Initial residual = 0, Final residual = 0, No Iterations 0
time step continuity errors : sum local = 1.43745e-08, global = 1.0365e-09, cumulative = -3.09637e-07
DILUPBiCGStab:  Solving for omega, Initial residual = 8.11157e-05, Final residual = 1.20227e-09, No Iterations 2
DILUPBiCGStab:  Solving for k, Initial residual = 0.00476998, Final residual = 1.96556e-09, No Iterations 3

ExecutionTime = 3.74 s  ClockTime = 4 s

    Overall     = 0.00128093, 0.01
Time = 278

diagonal:  Solving for rho, Initial residual = 0, Final residual = 0, No Iterations 0

Execution time for mesh.update() = 0 s

DILUPBiCGStab:  Solving for Ux, Initial residual = 0.00402108, Final residual = 5.3888e-09, No Iterations 3
DILUPBiCGStab:  Solving for Uy, Initial residual = 0.00729924, Final residual = 6.86212e-09, No Iterations 3
DILUPBiCGStab:  Solving for O2, Initial residual = 0.00288134, Final residual = 1.76442e-09, No Iterations 3
DILUPBiCGStab:  Solving for H2O, Initial residual = 0.00288136, Final residual = 1.76452e-09, No Iterations 3
DILUPBiCGStab:  Solving for CH4, Initial residual = 0, Final residual = 0, No Iterations 0
DILUPBiCGStab:  Solving for CO2, Initial residual = 0.00288136, Final residual = 1.76452e-09, No Iterations 3
DILUPBiCGStab:  Solving for h, Initial residual = 0.0032233, Final residual = 1.90901e-09, No Iterations 3
min/max(T) = 299.783, 1044.98
GAMGPCG:  Solving for p_rgh, Initial residual = 0.0167617, Final residual = 8.56657e-07, No Iterations 4
diagonal:  Solving for rho, Initial residual = 0, Final residual = 0, No Iterations 0
time step continuity errors : sum local = 3.75301e-08, global = -2.93411e-09, cumulative = -3.12571e-07
GAMGPCG:  Solving for p_rgh, Initial residual = 0.00234268, Final residual = 3.56298e-07, No Iterations 4
diagonal:  Solving for rho, Initial residual = 0, Final residual = 0, No Iterations 0
time step continuity errors : sum local = 1.48989e-08, global = 7.42244e-10, cumulative = -3.11829e-07
DILUPBiCGStab:  Solving for omega, Initial residual = 8.0411e-05, Final residual = 1.16417e-09, No Iterations 2
DILUPBiCGStab:  Solving for k, Initial residual = 0.00477711, Final residual = 1.91314e-09, No Iterations 3

ExecutionTime = 3.85 s  ClockTime = 4 s

    Overall     = 0.00127613, 0.01
Time = 279

diagonal:  Solving for rho, Initial residual = 0, Final residual = 0, No Iterations 0

Execution time for mesh.update() = 0 s

DILUPBiCGStab:  Solving for Ux, Initial residual = 0.00403136, Final residual = 5.17263e-09, No Iterations 3
DILUPBiCGStab:  Solving for Uy, Initial residual = 0.00728382, Final residual = 6.96066e-09, No Iterations 3
DILUPBiCGStab:  Solving for O2, Initial residual = 0.00288714, Final residual = 1.68829e-09, No Iterations 3
DILUPBiCGStab:  Solving for H2O, Initial residual = 0.00288738, Final residual = 1.68825e-09, No Iterations 3
DILUPBiCGStab:  Solving for CH4, Initial residual = 0, Final residual = 0, No Iterations 0
DILUPBiCGStab:  Solving for CO2, Initial residual = 0.00288738, Final residual = 1.68825e-09, No Iterations 3
DILUPBiCGStab:  Solving for h, Initial residual = 0.0032345, Final residual = 1.69775e-09, No Iterations 3
min/max(T) = 299.777, 1044.98
GAMGPCG:  Solving for p_rgh, Initial residual = 0.0173905, Final residual = 1.65647e-07, No Iterations 5
diagonal:  Solving for rho, Initial residual = 0, Final residual = 0, No Iterations 0
time step continuity errors : sum local = 7.34047e-09, global = 4.22534e-10, cumulative = -3.11407e-07
GAMGPCG:  Solving for p_rgh, Initial residual = 0.00236985, Final residual = 3.80114e-07, No Iterations 4
diagonal:  Solving for rho, Initial residual = 0, Final residual = 0, No Iterations 0
time step continuity errors : sum local = 1.58914e-08, global = 3.33736e-10, cumulative = -3.11073e-07
DILUPBiCGStab:  Solving for omega, Initial residual = 8.07245e-05, Final residual = 1.12882e-09, No Iterations 2
DILUPBiCGStab:  Solving for k, Initial residual = 0.00478507, Final residual = 1.75896e-09, No Iterations 3

ExecutionTime = 3.97 s  ClockTime = 4 s

    Overall     = 0.001277, 0.01
Time = 280

diagonal:  Solving for rho, Initial residual = 0, Final residual = 0, No Iterations 0

Execution time for mesh.update() = 0 s

DILUPBiCGStab:  Solving for Ux, Initial residual = 0.0040345, Final residual = 3.40944e-09, No Iterations 3
DILUPBiCGStab:  Solving for Uy, Initial residual = 0.00726923, Final residual = 6.62216e-09, No Iterations 3
GAMGPCG:  Solving for G, Initial residual = 0.136681, Final residual = 3.0961e-05, No Iterations 6
DILUPBiCGStab:  Solving for O2, Initial residual = 0.00289369, Final residual = 1.71928e-09, No Iterations 3
DILUPBiCGStab:  Solving for H2O, Initial residual = 0.00289366, Final residual = 1.71929e-09, No Iterations 3
DILUPBiCGStab:  Solving for CH4, Initial residual = 0, Final residual = 0, No Iterations 0
DILUPBiCGStab:  Solving for CO2, Initial residual = 0.00289366, Final residual = 1.71929e-09, No Iterations 3
DILUPBiCGStab:  Solving for h, Initial residual = 0.00323954, Final residual = 1.81615e-09, No Iterations 3
min/max(T) = 299.821, 1044.98
GAMGPCG:  Solving for p_rgh, Initial residual = 0.0169141, Final residual = 1.73945e-07, No Iterations 5
diagonal:  Solving for rho, Initial residual = 0, Final residual = 0, No Iterations 0
time step continuity errors : sum local = 7.64423e-09, global = 1.82545e-10, cumulative = -3.1089e-07
GAMGPCG:  Solving for p_rgh, Initial residual = 0.00237177, Final residual = 3.80645e-07, No Iterations 4
diagonal:  Solving for rho, Initial residual = 0, Final residual = 0, No Iterations 0
time step continuity errors : sum local = 1.6012e-08, global = 9.57349e-11, cumulative = -3.10794e-07
DILUPBiCGStab:  Solving for omega, Initial residual = 8.01069e-05, Final residual = 1.10178e-09, No Iterations 2
DILUPBiCGStab:  Solving for k, Initial residual = 0.00479694, Final residual = 1.64285e-09, No Iterations 3

ExecutionTime = 4.23 s  ClockTime = 4 s

    Overall     = 0.00127288, 0.01
Time = 281

diagonal:  Solving for rho, Initial residual = 0, Final residual = 0, No Iterations 0

Execution time for mesh.update() = 0 s

DILUPBiCGStab:  Solving for Ux, Initial residual = 0.00403033, Final residual = 2.98352e-09, No Iterations 3
DILUPBiCGStab:  Solving for Uy, Initial residual = 0.00723086, Final residual = 6.12358e-09, No Iterations 3
DILUPBiCGStab:  Solving for O2, Initial residual = 0.00289975, Final residual = 1.75577e-09, No Iterations 3
DILUPBiCGStab:  Solving for H2O, Initial residual = 0.00289996, Final residual = 1.75576e-09, No Iterations 3
DILUPBiCGStab:  Solving for CH4, Initial residual = 0, Final residual = 0, No Iterations 0
DILUPBiCGStab:  Solving for CO2, Initial residual = 0.00289996, Final residual = 1.75576e-09, No Iterations 3
DILUPBiCGStab:  Solving for h, Initial residual = 0.00325012, Final residual = 1.75476e-09, No Iterations 3
min/max(T) = 299.811, 1044.98
GAMGPCG:  Solving for p_rgh, Initial residual = 0.017351, Final residual = 1.86683e-07, No Iterations 5
diagonal:  Solving for rho, Initial residual = 0, Final residual = 0, No Iterations 0
time step continuity errors : sum local = 8.19862e-09, global = 3.75686e-10, cumulative = -3.10419e-07
GAMGPCG:  Solving for p_rgh, Initial residual = 0.00236289, Final residual = 3.75323e-07, No Iterations 4
diagonal:  Solving for rho, Initial residual = 0, Final residual = 0, No Iterations 0
time step continuity errors : sum local = 1.57909e-08, global = -5.05016e-11, cumulative = -3.10469e-07
DILUPBiCGStab:  Solving for omega, Initial residual = 8.00926e-05, Final residual = 1.14408e-09, No Iterations 2
DILUPBiCGStab:  Solving for k, Initial residual = 0.00481363, Final residual = 1.53686e-09, No Iterations 3

ExecutionTime = 4.35 s  ClockTime = 5 s

    Overall     = 0.00127464, 0.01
Time = 282

diagonal:  Solving for rho, Initial residual = 0, Final residual = 0, No Iterations 0

Execution time for mesh.update() = 0 s

DILUPBiCGStab:  Solving for Ux, Initial residual = 0.00403732, Final residual = 2.54489e-09, No Iterations 3
DILUPBiCGStab:  Solving for Uy, Initial residual = 0.00721069, Final residual = 6.00225e-09, No Iterations 3
DILUPBiCGStab:  Solving for O2, Initial residual = 0.00289918, Final residual = 1.69062e-09, No Iterations 3
DILUPBiCGStab:  Solving for H2O, Initial residual = 0.00289916, Final residual = 1.69063e-09, No Iterations 3
DILUPBiCGStab:  Solving for CH4, Initial residual = 0, Final residual = 0, No Iterations 0
DILUPBiCGStab:  Solving for CO2, Initial residual = 0.00289916, Final residual = 1.69063e-09, No Iterations 3
DILUPBiCGStab:  Solving for h, Initial residual = 0.00325509, Final residual = 1.74894e-09, No Iterations 3
min/max(T) = 299.846, 1044.98
GAMGPCG:  Solving for p_rgh, Initial residual = 0.0170766, Final residual = 2.21012e-07, No Iterations 5
diagonal:  Solving for rho, Initial residual = 0, Final residual = 0, No Iterations 0
time step continuity errors : sum local = 9.50652e-09, global = 1.25799e-10, cumulative = -3.10344e-07
GAMGPCG:  Solving for p_rgh, Initial residual = 0.00236283, Final residual = 3.8893e-07, No Iterations 4
diagonal:  Solving for rho, Initial residual = 0, Final residual = 0, No Iterations 0
time step continuity errors : sum local = 1.62907e-08, global = -2.44783e-11, cumulative = -3.10368e-07
DILUPBiCGStab:  Solving for omega, Initial residual = 7.94695e-05, Final residual = 1.05115e-09, No Iterations 2
DILUPBiCGStab:  Solving for k, Initial residual = 0.00482504, Final residual = 1.50537e-09, No Iterations 3

ExecutionTime = 4.47 s  ClockTime = 5 s

    Overall     = 0.00127127, 0.01
Time = 283

diagonal:  Solving for rho, Initial residual = 0, Final residual = 0, No Iterations 0

Execution time for mesh.update() = 0 s

DILUPBiCGStab:  Solving for Ux, Initial residual = 0.00403789, Final residual = 2.75821e-09, No Iterations 3
DILUPBiCGStab:  Solving for Uy, Initial residual = 0.0072005, Final residual = 6.05236e-09, No Iterations 3
DILUPBiCGStab:  Solving for O2, Initial residual = 0.00290977, Final residual = 1.59875e-09, No Iterations 3
DILUPBiCGStab:  Solving for H2O, Initial residual = 0.00290996, Final residual = 1.59873e-09, No Iterations 3
DILUPBiCGStab:  Solving for CH4, Initial residual = 0, Final residual = 0, No Iterations 0
DILUPBiCGStab:  Solving for CO2, Initial residual = 0.00290996, Final residual = 1.59874e-09, No Iterations 3
DILUPBiCGStab:  Solving for h, Initial residual = 0.00326309, Final residual = 1.77479e-09, No Iterations 3
min/max(T) = 299.834, 1044.98
GAMGPCG:  Solving for p_rgh, Initial residual = 0.0173942, Final residual = 2.60181e-07, No Iterations 5
diagonal:  Solving for rho, Initial residual = 0, Final residual = 0, No Iterations 0
time step continuity errors : sum local = 1.11927e-08, global = 2.6564e-10, cumulative = -3.10102e-07
GAMGPCG:  Solving for p_rgh, Initial residual = 0.00237076, Final residual = 3.8668e-07, No Iterations 4
diagonal:  Solving for rho, Initial residual = 0, Final residual = 0, No Iterations 0
time step continuity errors : sum local = 1.62329e-08, global = -2.53002e-10, cumulative = -3.10355e-07
DILUPBiCGStab:  Solving for omega, Initial residual = 7.92153e-05, Final residual = 1.09445e-09, No Iterations 2
DILUPBiCGStab:  Solving for k, Initial residual = 0.00483033, Final residual = 1.42802e-09, No Iterations 3

ExecutionTime = 4.59 s  ClockTime = 5 s

    Overall     = 0.00127404, 0.01
Time = 284

diagonal:  Solving for rho, Initial residual = 0, Final residual = 0, No Iterations 0

Execution time for mesh.update() = 0 s

DILUPBiCGStab:  Solving for Ux, Initial residual = 0.0040546, Final residual = 2.77098e-09, No Iterations 3
DILUPBiCGStab:  Solving for Uy, Initial residual = 0.00717446, Final residual = 5.73895e-09, No Iterations 3
DILUPBiCGStab:  Solving for O2, Initial residual = 0.00290471, Final residual = 1.63772e-09, No Iterations 3
DILUPBiCGStab:  Solving for H2O, Initial residual = 0.00290472, Final residual = 1.63777e-09, No Iterations 3
DILUPBiCGStab:  Solving for CH4, Initial residual = 0, Final residual = 0, No Iterations 0
DILUPBiCGStab:  Solving for CO2, Initial residual = 0.00290472, Final residual = 1.63777e-09, No Iterations 3
DILUPBiCGStab:  Solving for h, Initial residual = 0.00326421, Final residual = 1.71965e-09, No Iterations 3
min/max(T) = 299.858, 1044.98
GAMGPCG:  Solving for p_rgh, Initial residual = 0.017056, Final residual = 3.05711e-07, No Iterations 5
diagonal:  Solving for rho, Initial residual = 0, Final residual = 0, No Iterations 0
time step continuity errors : sum local = 1.2999e-08, global = -3.5928e-11, cumulative = -3.10391e-07
GAMGPCG:  Solving for p_rgh, Initial residual = 0.00238027, Final residual = 4.0911e-07, No Iterations 4
diagonal:  Solving for rho, Initial residual = 0, Final residual = 0, No Iterations 0
time step continuity errors : sum local = 1.70281e-08, global = -2.14805e-10, cumulative = -3.10606e-07
DILUPBiCGStab:  Solving for omega, Initial residual = 7.85534e-05, Final residual = 1.01083e-09, No Iterations 2
DILUPBiCGStab:  Solving for k, Initial residual = 0.00484229, Final residual = 2.64448e-09, No Iterations 3

ExecutionTime = 4.71 s  ClockTime = 5 s

    Overall     = 0.00127152, 0.01
Time = 285

diagonal:  Solving for rho, Initial residual = 0, Final residual = 0, No Iterations 0

Execution time for mesh.update() = 0 s

DILUPBiCGStab:  Solving for Ux, Initial residual = 0.00404664, Final residual = 3.2255e-09, No Iterations 3
DILUPBiCGStab:  Solving for Uy, Initial residual = 0.00715279, Final residual = 6.03017e-09, No Iterations 3
DILUPBiCGStab:  Solving for O2, Initial residual = 0.00291426, Final residual = 1.89455e-09, No Iterations 3
DILUPBiCGStab:  Solving for H2O, Initial residual = 0.00291446, Final residual = 1.89445e-09, No Iterations 3
DILUPBiCGStab:  Solving for CH4, Initial residual = 0, Final residual = 0, No Iterations 0
DILUPBiCGStab:  Solving for CO2, Initial residual = 0.00291446, Final residual = 1.89445e-09, No Iterations 3
DILUPBiCGStab:  Solving for h, Initial residual = 0.00327666, Final residual = 2.17047e-09, No Iterations 3
min/max(T) = 299.841, 1044.98
GAMGPCG:  Solving for p_rgh, Initial residual = 0.0174233, Final residual = 3.09595e-07, No Iterations 5
diagonal:  Solving for rho, Initial residual = 0, Final residual = 0, No Iterations 0
time step continuity errors : sum local = 1.3193e-08, global = 1.14685e-10, cumulative = -3.10491e-07
GAMGPCG:  Solving for p_rgh, Initial residual = 0.00238232, Final residual = 4.21362e-07, No Iterations 4
diagonal:  Solving for rho, Initial residual = 0, Final residual = 0, No Iterations 0
time step continuity errors : sum local = 1.74044e-08, global = -2.63357e-10, cumulative = -3.10755e-07
DILUPBiCGStab:  Solving for omega, Initial residual = 7.82929e-05, Final residual = 1.04382e-09, No Iterations 2
DILUPBiCGStab:  Solving for k, Initial residual = 0.0048612, Final residual = 2.26165e-09, No Iterations 3

ExecutionTime = 4.83 s  ClockTime = 5 s

    Overall     = 0.00127517, 0.01
Time = 286

diagonal:  Solving for rho, Initial residual = 0, Final residual = 0, No Iterations 0

Execution time for mesh.update() = 0 s

DILUPBiCGStab:  Solving for Ux, Initial residual = 0.00405792, Final residual = 3.27388e-09, No Iterations 3
DILUPBiCGStab:  Solving for Uy, Initial residual = 0.00713716, Final residual = 6.40283e-09, No Iterations 3
DILUPBiCGStab:  Solving for O2, Initial residual = 0.00291309, Final residual = 1.81069e-09, No Iterations 3
DILUPBiCGStab:  Solving for H2O, Initial residual = 0.00291312, Final residual = 1.81081e-09, No Iterations 3
DILUPBiCGStab:  Solving for CH4, Initial residual = 0, Final residual = 0, No Iterations 0
DILUPBiCGStab:  Solving for CO2, Initial residual = 0.00291312, Final residual = 1.81081e-09, No Iterations 3
DILUPBiCGStab:  Solving for h, Initial residual = 0.00328067, Final residual = 1.98758e-09, No Iterations 3
min/max(T) = 299.856, 1044.98
GAMGPCG:  Solving for p_rgh, Initial residual = 0.0171212, Final residual = 3.39036e-07, No Iterations 5
diagonal:  Solving for rho, Initial residual = 0, Final residual = 0, No Iterations 0
time step continuity errors : sum local = 1.43348e-08, global = -3.33406e-10, cumulative = -3.11088e-07
GAMGPCG:  Solving for p_rgh, Initial residual = 0.00238822, Final residual = 4.46272e-07, No Iterations 4
diagonal:  Solving for rho, Initial residual = 0, Final residual = 0, No Iterations 0
time step continuity errors : sum local = 1.82319e-08, global = -9.77395e-11, cumulative = -3.11186e-07
DILUPBiCGStab:  Solving for omega, Initial residual = 7.74877e-05, Final residual = 1.03493e-09, No Iterations 2
DILUPBiCGStab:  Solving for k, Initial residual = 0.00487631, Final residual = 3.45834e-09, No Iterations 3

ExecutionTime = 4.95 s  ClockTime = 5 s

    Overall     = 0.00127341, 0.01
Time = 287

diagonal:  Solving for rho, Initial residual = 0, Final residual = 0, No Iterations 0

Execution time for mesh.update() = 0 s

DILUPBiCGStab:  Solving for Ux, Initial residual = 0.0040552, Final residual = 3.51558e-09, No Iterations 3
DILUPBiCGStab:  Solving for Uy, Initial residual = 0.00712987, Final residual = 6.20268e-09, No Iterations 3
DILUPBiCGStab:  Solving for O2, Initial residual = 0.00292244, Final residual = 1.63153e-09, No Iterations 3
DILUPBiCGStab:  Solving for H2O, Initial residual = 0.00292265, Final residual = 1.63143e-09, No Iterations 3
DILUPBiCGStab:  Solving for CH4, Initial residual = 0, Final residual = 0, No Iterations 0
DILUPBiCGStab:  Solving for CO2, Initial residual = 0.00292265, Final residual = 1.63143e-09, No Iterations 3
DILUPBiCGStab:  Solving for h, Initial residual = 0.00329137, Final residual = 1.7128e-09, No Iterations 3
min/max(T) = 299.836, 1044.98
GAMGPCG:  Solving for p_rgh, Initial residual = 0.0175033, Final residual = 3.14097e-07, No Iterations 5
diagonal:  Solving for rho, Initial residual = 0, Final residual = 0, No Iterations 0
time step continuity errors : sum local = 1.33018e-08, global = -1.73204e-10, cumulative = -3.11359e-07
GAMGPCG:  Solving for p_rgh, Initial residual = 0.00242286, Final residual = 4.77038e-07, No Iterations 4
diagonal:  Solving for rho, Initial residual = 0, Final residual = 0, No Iterations 0
time step continuity errors : sum local = 1.92793e-08, global = -1.79544e-10, cumulative = -3.11539e-07
DILUPBiCGStab:  Solving for omega, Initial residual = 7.74759e-05, Final residual = 1.10693e-09, No Iterations 2
DILUPBiCGStab:  Solving for k, Initial residual = 0.00489327, Final residual = 7.42028e-09, No Iterations 3

ExecutionTime = 5.07 s  ClockTime = 5 s

    Overall     = 0.0012778, 0.01
Time = 288

diagonal:  Solving for rho, Initial residual = 0, Final residual = 0, No Iterations 0

Execution time for mesh.update() = 0 s

DILUPBiCGStab:  Solving for Ux, Initial residual = 0.00407082, Final residual = 3.67367e-09, No Iterations 3
DILUPBiCGStab:  Solving for Uy, Initial residual = 0.00713096, Final residual = 7.71305e-09, No Iterations 3
DILUPBiCGStab:  Solving for O2, Initial residual = 0.00291937, Final residual = 1.7125e-09, No Iterations 3
DILUPBiCGStab:  Solving for H2O, Initial residual = 0.00291942, Final residual = 1.71258e-09, No Iterations 3
DILUPBiCGStab:  Solving for CH4, Initial residual = 0, Final residual = 0, No Iterations 0
DILUPBiCGStab:  Solving for CO2, Initial residual = 0.00291942, Final residual = 1.71258e-09, No Iterations 3
DILUPBiCGStab:  Solving for h, Initial residual = 0.00328846, Final residual = 1.65553e-09, No Iterations 3
min/max(T) = 299.845, 1044.98
GAMGPCG:  Solving for p_rgh, Initial residual = 0.0171345, Final residual = 3.16553e-07, No Iterations 5
diagonal:  Solving for rho, Initial residual = 0, Final residual = 0, No Iterations 0
time step continuity errors : sum local = 1.33346e-08, global = -5.46163e-10, cumulative = -3.12085e-07
GAMGPCG:  Solving for p_rgh, Initial residual = 0.0024325, Final residual = 5.13363e-07, No Iterations 4
diagonal:  Solving for rho, Initial residual = 0, Final residual = 0, No Iterations 0
time step continuity errors : sum local = 2.05837e-08, global = -1.64404e-11, cumulative = -3.12101e-07
DILUPBiCGStab:  Solving for omega, Initial residual = 7.72489e-05, Final residual = 1.06157e-09, No Iterations 2
DILUPBiCGStab:  Solving for k, Initial residual = 0.00490924, Final residual = 3.06039e-09, No Iterations 3

ExecutionTime = 5.18 s  ClockTime = 5 s

    Overall     = 0.00127666, 0.01
Time = 289

diagonal:  Solving for rho, Initial residual = 0, Final residual = 0, No Iterations 0

Execution time for mesh.update() = 0 s

DILUPBiCGStab:  Solving for Ux, Initial residual = 0.00407392, Final residual = 3.83271e-09, No Iterations 3
DILUPBiCGStab:  Solving for Uy, Initial residual = 0.00710768, Final residual = 6.55239e-09, No Iterations 3
DILUPBiCGStab:  Solving for O2, Initial residual = 0.00292019, Final residual = 1.51876e-09, No Iterations 3
DILUPBiCGStab:  Solving for H2O, Initial residual = 0.00292042, Final residual = 1.51873e-09, No Iterations 3
DILUPBiCGStab:  Solving for CH4, Initial residual = 0, Final residual = 0, No Iterations 0
DILUPBiCGStab:  Solving for CO2, Initial residual = 0.00292041, Final residual = 1.51873e-09, No Iterations 3
DILUPBiCGStab:  Solving for h, Initial residual = 0.00329532, Final residual = 1.44588e-09, No Iterations 3
min/max(T) = 299.824, 1044.98
GAMGPCG:  Solving for p_rgh, Initial residual = 0.0172701, Final residual = 2.94904e-07, No Iterations 5
diagonal:  Solving for rho, Initial residual = 0, Final residual = 0, No Iterations 0
time step continuity errors : sum local = 1.24373e-08, global = -4.10491e-10, cumulative = -3.12512e-07
GAMGPCG:  Solving for p_rgh, Initial residual = 0.00242387, Final residual = 5.43016e-07, No Iterations 4
diagonal:  Solving for rho, Initial residual = 0, Final residual = 0, No Iterations 0
time step continuity errors : sum local = 2.17101e-08, global = -2.07756e-10, cumulative = -3.1272e-07
DILUPBiCGStab:  Solving for omega, Initial residual = 7.68805e-05, Final residual = 9.84184e-10, No Iterations 2
DILUPBiCGStab:  Solving for k, Initial residual = 0.00492099, Final residual = 2.88479e-09, No Iterations 3

ExecutionTime = 5.3 s  ClockTime = 5 s

    Overall     = 0.00128169, 0.01
Time = 290

diagonal:  Solving for rho, Initial residual = 0, Final residual = 0, No Iterations 0

Execution time for mesh.update() = 0 s

DILUPBiCGStab:  Solving for Ux, Initial residual = 0.00410057, Final residual = 4.03297e-09, No Iterations 3
DILUPBiCGStab:  Solving for Uy, Initial residual = 0.00711493, Final residual = 7.00715e-09, No Iterations 3
GAMGPCG:  Solving for G, Initial residual = 0.14761, Final residual = 5.70942e-05, No Iterations 5
DILUPBiCGStab:  Solving for O2, Initial residual = 0.00292056, Final residual = 1.59836e-09, No Iterations 3
DILUPBiCGStab:  Solving for H2O, Initial residual = 0.00292064, Final residual = 1.59832e-09, No Iterations 3
DILUPBiCGStab:  Solving for CH4, Initial residual = 0, Final residual = 0, No Iterations 0
DILUPBiCGStab:  Solving for CO2, Initial residual = 0.00292063, Final residual = 1.59832e-09, No Iterations 3
DILUPBiCGStab:  Solving for h, Initial residual = 0.00329723, Final residual = 1.48399e-09, No Iterations 3
min/max(T) = 299.828, 1044.98
GAMGPCG:  Solving for p_rgh, Initial residual = 0.0173544, Final residual = 3.18718e-07, No Iterations 5
diagonal:  Solving for rho, Initial residual = 0, Final residual = 0, No Iterations 0
time step continuity errors : sum local = 1.3338e-08, global = -8.33455e-10, cumulative = -3.13553e-07
GAMGPCG:  Solving for p_rgh, Initial residual = 0.00243138, Final residual = 5.65287e-07, No Iterations 4
diagonal:  Solving for rho, Initial residual = 0, Final residual = 0, No Iterations 0
time step continuity errors : sum local = 2.25931e-08, global = -1.47061e-10, cumulative = -3.137e-07
DILUPBiCGStab:  Solving for omega, Initial residual = 7.65875e-05, Final residual = 1.03128e-09, No Iterations 2
DILUPBiCGStab:  Solving for k, Initial residual = 0.00492822, Final residual = 2.14902e-09, No Iterations 3

ExecutionTime = 5.55 s  ClockTime = 6 s

    Overall     = 0.00128089, 0.01
Time = 291

diagonal:  Solving for rho, Initial residual = 0, Final residual = 0, No Iterations 0

Execution time for mesh.update() = 0 s

DILUPBiCGStab:  Solving for Ux, Initial residual = 0.00410387, Final residual = 3.83727e-09, No Iterations 3
DILUPBiCGStab:  Solving for Uy, Initial residual = 0.00710911, Final residual = 5.8196e-09, No Iterations 3
DILUPBiCGStab:  Solving for O2, Initial residual = 0.00291432, Final residual = 1.53675e-09, No Iterations 3
DILUPBiCGStab:  Solving for H2O, Initial residual = 0.00291457, Final residual = 1.53681e-09, No Iterations 3
DILUPBiCGStab:  Solving for CH4, Initial residual = 0, Final residual = 0, No Iterations 0
DILUPBiCGStab:  Solving for CO2, Initial residual = 0.00291457, Final residual = 1.53681e-09, No Iterations 3
DILUPBiCGStab:  Solving for h, Initial residual = 0.00329338, Final residual = 1.48383e-09, No Iterations 3
min/max(T) = 299.805, 1044.98
GAMGPCG:  Solving for p_rgh, Initial residual = 0.0172874, Final residual = 3.32877e-07, No Iterations 5
diagonal:  Solving for rho, Initial residual = 0, Final residual = 0, No Iterations 0
time step continuity errors : sum local = 1.39023e-08, global = -6.13547e-10, cumulative = -3.14314e-07
GAMGPCG:  Solving for p_rgh, Initial residual = 0.00242127, Final residual = 5.83284e-07, No Iterations 4
diagonal:  Solving for rho, Initial residual = 0, Final residual = 0, No Iterations 0
time step continuity errors : sum local = 2.32248e-08, global = -3.48609e-10, cumulative = -3.14662e-07
DILUPBiCGStab:  Solving for omega, Initial residual = 7.63355e-05, Final residual = 9.41261e-10, No Iterations 2
DILUPBiCGStab:  Solving for k, Initial residual = 0.00493359, Final residual = 2.48515e-09, No Iterations 3

ExecutionTime = 5.67 s  ClockTime = 6 s

    Overall     = 0.00128629, 0.01
Time = 292

diagonal:  Solving for rho, Initial residual = 0, Final residual = 0, No Iterations 0

Execution time for mesh.update() = 0 s

DILUPBiCGStab:  Solving for Ux, Initial residual = 0.00412054, Final residual = 3.4806e-09, No Iterations 3
DILUPBiCGStab:  Solving for Uy, Initial residual = 0.0070888, Final residual = 5.51125e-09, No Iterations 3
DILUPBiCGStab:  Solving for O2, Initial residual = 0.00291478, Final residual = 1.39062e-09, No Iterations 3
DILUPBiCGStab:  Solving for H2O, Initial residual = 0.00291487, Final residual = 1.39035e-09, No Iterations 3
DILUPBiCGStab:  Solving for CH4, Initial residual = 0, Final residual = 0, No Iterations 0
DILUPBiCGStab:  Solving for CO2, Initial residual = 0.00291487, Final residual = 1.39035e-09, No Iterations 3
DILUPBiCGStab:  Solving for h, Initial residual = 0.00329683, Final residual = 1.37322e-09, No Iterations 3
min/max(T) = 299.805, 1044.98
GAMGPCG:  Solving for p_rgh, Initial residual = 0.0174329, Final residual = 3.80411e-07, No Iterations 5
diagonal:  Solving for rho, Initial residual = 0, Final residual = 0, No Iterations 0
time step continuity errors : sum local = 1.57177e-08, global = -1.06036e-09, cumulative = -3.15723e-07
GAMGPCG:  Solving for p_rgh, Initial residual = 0.00247915, Final residual = 5.85308e-07, No Iterations 4
diagonal:  Solving for rho, Initial residual = 0, Final residual = 0, No Iterations 0
time step continuity errors : sum local = 2.32644e-08, global = -3.3083e-10, cumulative = -3.16053e-07
DILUPBiCGStab:  Solving for omega, Initial residual = 7.63454e-05, Final residual = 9.30263e-10, No Iterations 2
DILUPBiCGStab:  Solving for k, Initial residual = 0.00493882, Final residual = 1.73043e-09, No Iterations 3

ExecutionTime = 5.79 s  ClockTime = 6 s

[...]

Execution time for mesh.update() = 0 s

DILUPBiCGStab:  Solving for Ux, Initial residual = 0.00493069, Final residual = 5.47045e-09, No Iterations 3
DILUPBiCGStab:  Solving for Uy, Initial residual = 0.00476423, Final residual = 5.10281e-09, No Iterations 3
GAMGPCG:  Solving for G, Initial residual = 0.184121, Final residual = 2.78053e-05, No Iterations 6
DILUPBiCGStab:  Solving for O2, Initial residual = 0.00180513, Final residual = 1.61204e-09, No Iterations 3
DILUPBiCGStab:  Solving for H2O, Initial residual = 0.00180513, Final residual = 1.61205e-09, No Iterations 3
DILUPBiCGStab:  Solving for CH4, Initial residual = 0, Final residual = 0, No Iterations 0
DILUPBiCGStab:  Solving for CO2, Initial residual = 0.00180513, Final residual = 1.61205e-09, No Iterations 3
DILUPBiCGStab:  Solving for h, Initial residual = 0.00206082, Final residual = 1.76742e-09, No Iterations 3
min/max(T) = 300, 1044.98
GAMGPCG:  Solving for p_rgh, Initial residual = 0.0209315, Final residual = 9.78738e-07, No Iterations 4
diagonal:  Solving for rho, Initial residual = 0, Final residual = 0, No Iterations 0
time step continuity errors : sum local = 2.89978e-08, global = -3.73266e-09, cumulative = 1.27911e-07
GAMGPCG:  Solving for p_rgh, Initial residual = 0.00285142, Final residual = 2.01528e-07, No Iterations 4
diagonal:  Solving for rho, Initial residual = 0, Final residual = 0, No Iterations 0
time step continuity errors : sum local = 5.96852e-09, global = 9.12764e-10, cumulative = 1.28824e-07
DILUPBiCGStab:  Solving for omega, Initial residual = 9.47756e-05, Final residual = 1.58229e-09, No Iterations 2
DILUPBiCGStab:  Solving for k, Initial residual = 0.00356843, Final residual = 4.01481e-09, No Iterations 3

ExecutionTime = 289.91 s  ClockTime = 290 s

    Overall     = 0.00117094, 0.01
Time = 2491

diagonal:  Solving for rho, Initial residual = 0, Final residual = 0, No Iterations 0

Execution time for mesh.update() = 0 s

DILUPBiCGStab:  Solving for Ux, Initial residual = 0.00498274, Final residual = 5.06395e-09, No Iterations 3
DILUPBiCGStab:  Solving for Uy, Initial residual = 0.0048551, Final residual = 5.26233e-09, No Iterations 3
DILUPBiCGStab:  Solving for O2, Initial residual = 0.00185529, Final residual = 1.57108e-09, No Iterations 3
DILUPBiCGStab:  Solving for H2O, Initial residual = 0.00185529, Final residual = 1.57109e-09, No Iterations 3
DILUPBiCGStab:  Solving for CH4, Initial residual = 0, Final residual = 0, No Iterations 0
DILUPBiCGStab:  Solving for CO2, Initial residual = 0.00185529, Final residual = 1.57109e-09, No Iterations 3
DILUPBiCGStab:  Solving for h, Initial residual = 0.00212525, Final residual = 1.71926e-09, No Iterations 3
min/max(T) = 300, 1044.98
GAMGPCG:  Solving for p_rgh, Initial residual = 0.0237724, Final residual = 9.73767e-07, No Iterations 4
diagonal:  Solving for rho, Initial residual = 0, Final residual = 0, No Iterations 0
time step continuity errors : sum local = 2.87163e-08, global = -2.23885e-09, cumulative = 1.26585e-07
GAMGPCG:  Solving for p_rgh, Initial residual = 0.00306201, Final residual = 1.47308e-07, No Iterations 4
diagonal:  Solving for rho, Initial residual = 0, Final residual = 0, No Iterations 0
time step continuity errors : sum local = 4.3268e-09, global = 1.31127e-09, cumulative = 1.27896e-07
DILUPBiCGStab:  Solving for omega, Initial residual = 9.48732e-05, Final residual = 1.56749e-09, No Iterations 2
DILUPBiCGStab:  Solving for k, Initial residual = 0.00354995, Final residual = 2.9221e-09, No Iterations 3

ExecutionTime = 290.02 s  ClockTime = 290 s

    Overall     = 0.00116792, 0.01
Time = 2492

diagonal:  Solving for rho, Initial residual = 0, Final residual = 0, No Iterations 0

Execution time for mesh.update() = 0 s

DILUPBiCGStab:  Solving for Ux, Initial residual = 0.00505336, Final residual = 4.95241e-09, No Iterations 3
DILUPBiCGStab:  Solving for Uy, Initial residual = 0.00500748, Final residual = 5.03871e-09, No Iterations 3
DILUPBiCGStab:  Solving for O2, Initial residual = 0.00191059, Final residual = 1.50981e-09, No Iterations 3
DILUPBiCGStab:  Solving for H2O, Initial residual = 0.00191059, Final residual = 1.50982e-09, No Iterations 3
DILUPBiCGStab:  Solving for CH4, Initial residual = 0, Final residual = 0, No Iterations 0
DILUPBiCGStab:  Solving for CO2, Initial residual = 0.00191059, Final residual = 1.50982e-09, No Iterations 3
DILUPBiCGStab:  Solving for h, Initial residual = 0.0021992, Final residual = 1.62398e-09, No Iterations 3
min/max(T) = 300, 1044.98
GAMGPCG:  Solving for p_rgh, Initial residual = 0.024432, Final residual = 9.71544e-07, No Iterations 4
diagonal:  Solving for rho, Initial residual = 0, Final residual = 0, No Iterations 0
time step continuity errors : sum local = 2.82577e-08, global = -2.37542e-09, cumulative = 1.25521e-07
GAMGPCG:  Solving for p_rgh, Initial residual = 0.00328912, Final residual = 1.56713e-07, No Iterations 4
diagonal:  Solving for rho, Initial residual = 0, Final residual = 0, No Iterations 0
time step continuity errors : sum local = 4.54511e-09, global = 1.23593e-09, cumulative = 1.26757e-07
DILUPBiCGStab:  Solving for omega, Initial residual = 9.71643e-05, Final residual = 1.55802e-09, No Iterations 2
DILUPBiCGStab:  Solving for k, Initial residual = 0.00356607, Final residual = 2.40758e-09, No Iterations 3

ExecutionTime = 290.14 s  ClockTime = 290 s

    Overall     = 0.00115899, 0.01
Time = 2493

diagonal:  Solving for rho, Initial residual = 0, Final residual = 0, No Iterations 0

Execution time for mesh.update() = 0 s

DILUPBiCGStab:  Solving for Ux, Initial residual = 0.00505092, Final residual = 4.57825e-09, No Iterations 3
DILUPBiCGStab:  Solving for Uy, Initial residual = 0.00497302, Final residual = 5.51651e-09, No Iterations 3
DILUPBiCGStab:  Solving for O2, Initial residual = 0.0019374, Final residual = 1.44809e-09, No Iterations 3
DILUPBiCGStab:  Solving for H2O, Initial residual = 0.0019374, Final residual = 1.4481e-09, No Iterations 3
DILUPBiCGStab:  Solving for CH4, Initial residual = 0, Final residual = 0, No Iterations 0
DILUPBiCGStab:  Solving for CO2, Initial residual = 0.0019374, Final residual = 1.4481e-09, No Iterations 3
DILUPBiCGStab:  Solving for h, Initial residual = 0.0022295, Final residual = 1.56949e-09, No Iterations 3
min/max(T) = 300, 1044.98
GAMGPCG:  Solving for p_rgh, Initial residual = 0.0263655, Final residual = 7.96247e-07, No Iterations 4
diagonal:  Solving for rho, Initial residual = 0, Final residual = 0, No Iterations 0
time step continuity errors : sum local = 2.31354e-08, global = -1.67626e-09, cumulative = 1.2508e-07
GAMGPCG:  Solving for p_rgh, Initial residual = 0.00344137, Final residual = 1.57428e-07, No Iterations 4
diagonal:  Solving for rho, Initial residual = 0, Final residual = 0, No Iterations 0
time step continuity errors : sum local = 4.48912e-09, global = 5.01477e-10, cumulative = 1.25582e-07
DILUPBiCGStab:  Solving for omega, Initial residual = 9.72803e-05, Final residual = 1.2914e-09, No Iterations 2
DILUPBiCGStab:  Solving for k, Initial residual = 0.0035414, Final residual = 2.20336e-09, No Iterations 3

ExecutionTime = 290.25 s  ClockTime = 291 s

    Overall     = 0.00115585, 0.01
Time = 2494

diagonal:  Solving for rho, Initial residual = 0, Final residual = 0, No Iterations 0

Execution time for mesh.update() = 0 s

DILUPBiCGStab:  Solving for Ux, Initial residual = 0.00502868, Final residual = 4.46645e-09, No Iterations 3
DILUPBiCGStab:  Solving for Uy, Initial residual = 0.00507175, Final residual = 5.0331e-09, No Iterations 3
DILUPBiCGStab:  Solving for O2, Initial residual = 0.00197587, Final residual = 1.40721e-09, No Iterations 3
DILUPBiCGStab:  Solving for H2O, Initial residual = 0.00197587, Final residual = 1.40723e-09, No Iterations 3
DILUPBiCGStab:  Solving for CH4, Initial residual = 0, Final residual = 0, No Iterations 0
DILUPBiCGStab:  Solving for CO2, Initial residual = 0.00197587, Final residual = 1.40723e-09, No Iterations 3
DILUPBiCGStab:  Solving for h, Initial residual = 0.00228315, Final residual = 1.48779e-09, No Iterations 3
min/max(T) = 300, 1044.98
GAMGPCG:  Solving for p_rgh, Initial residual = 0.0274367, Final residual = 7.16769e-07, No Iterations 4
diagonal:  Solving for rho, Initial residual = 0, Final residual = 0, No Iterations 0
time step continuity errors : sum local = 2.06462e-08, global = -2.98393e-09, cumulative = 1.22598e-07
GAMGPCG:  Solving for p_rgh, Initial residual = 0.00369511, Final residual = 9.78929e-07, No Iterations 3
diagonal:  Solving for rho, Initial residual = 0, Final residual = 0, No Iterations 0
time step continuity errors : sum local = 2.76742e-08, global = -1.76309e-09, cumulative = 1.20835e-07
DILUPBiCGStab:  Solving for omega, Initial residual = 9.7304e-05, Final residual = 1.24646e-09, No Iterations 2
DILUPBiCGStab:  Solving for k, Initial residual = 0.0035236, Final residual = 2.05641e-09, No Iterations 3

ExecutionTime = 290.36 s  ClockTime = 291 s

    Overall     = 0.0011413, 0.01
Time = 2495

diagonal:  Solving for rho, Initial residual = 0, Final residual = 0, No Iterations 0

Execution time for mesh.update() = 0 s

DILUPBiCGStab:  Solving for Ux, Initial residual = 0.00506049, Final residual = 4.50042e-09, No Iterations 3
DILUPBiCGStab:  Solving for Uy, Initial residual = 0.00505634, Final residual = 6.03217e-09, No Iterations 3
DILUPBiCGStab:  Solving for O2, Initial residual = 0.00197818, Final residual = 1.33977e-09, No Iterations 3
DILUPBiCGStab:  Solving for H2O, Initial residual = 0.00197818, Final residual = 1.33978e-09, No Iterations 3
DILUPBiCGStab:  Solving for CH4, Initial residual = 0, Final residual = 0, No Iterations 0
DILUPBiCGStab:  Solving for CO2, Initial residual = 0.00197818, Final residual = 1.33978e-09, No Iterations 3
DILUPBiCGStab:  Solving for h, Initial residual = 0.00228001, Final residual = 1.43152e-09, No Iterations 3
min/max(T) = 300, 1044.98
GAMGPCG:  Solving for p_rgh, Initial residual = 0.0283014, Final residual = 9.02641e-07, No Iterations 4
diagonal:  Solving for rho, Initial residual = 0, Final residual = 0, No Iterations 0
time step continuity errors : sum local = 2.5841e-08, global = -1.3649e-09, cumulative = 1.1947e-07
GAMGPCG:  Solving for p_rgh, Initial residual = 0.00400163, Final residual = 1.75442e-07, No Iterations 4
diagonal:  Solving for rho, Initial residual = 0, Final residual = 0, No Iterations 0
time step continuity errors : sum local = 4.95705e-09, global = -1.41328e-10, cumulative = 1.19328e-07
DILUPBiCGStab:  Solving for omega, Initial residual = 9.44523e-05, Final residual = 1.23412e-09, No Iterations 2
DILUPBiCGStab:  Solving for k, Initial residual = 0.0035027, Final residual = 1.86637e-09, No Iterations 3

ExecutionTime = 290.48 s  ClockTime = 291 s

    Overall     = 0.00114393, 0.01
Time = 2496

diagonal:  Solving for rho, Initial residual = 0, Final residual = 0, No Iterations 0

Execution time for mesh.update() = 0 s

DILUPBiCGStab:  Solving for Ux, Initial residual = 0.00500011, Final residual = 4.42226e-09, No Iterations 3
DILUPBiCGStab:  Solving for Uy, Initial residual = 0.00500005, Final residual = 6.33444e-09, No Iterations 3
DILUPBiCGStab:  Solving for O2, Initial residual = 0.00199392, Final residual = 1.36455e-09, No Iterations 3
DILUPBiCGStab:  Solving for H2O, Initial residual = 0.00199392, Final residual = 1.36455e-09, No Iterations 3
DILUPBiCGStab:  Solving for CH4, Initial residual = 0, Final residual = 0, No Iterations 0
DILUPBiCGStab:  Solving for CO2, Initial residual = 0.00199392, Final residual = 1.36455e-09, No Iterations 3
DILUPBiCGStab:  Solving for h, Initial residual = 0.00230558, Final residual = 1.45054e-09, No Iterations 3
min/max(T) = 300, 1044.98
GAMGPCG:  Solving for p_rgh, Initial residual = 0.0282988, Final residual = 6.18677e-07, No Iterations 4
diagonal:  Solving for rho, Initial residual = 0, Final residual = 0, No Iterations 0
time step continuity errors : sum local = 1.78201e-08, global = -3.02521e-09, cumulative = 1.16303e-07
GAMGPCG:  Solving for p_rgh, Initial residual = 0.00394911, Final residual = 1.78928e-07, No Iterations 4
diagonal:  Solving for rho, Initial residual = 0, Final residual = 0, No Iterations 0
time step continuity errors : sum local = 5.1038e-09, global = 4.50697e-10, cumulative = 1.16754e-07
DILUPBiCGStab:  Solving for omega, Initial residual = 9.56697e-05, Final residual = 1.27334e-09, No Iterations 2
DILUPBiCGStab:  Solving for k, Initial residual = 0.00351853, Final residual = 5.06877e-09, No Iterations 3

ExecutionTime = 290.59 s  ClockTime = 291 s

    Overall     = 0.00112109, 0.01
Time = 2497

diagonal:  Solving for rho, Initial residual = 0, Final residual = 0, No Iterations 0

Execution time for mesh.update() = 0 s

DILUPBiCGStab:  Solving for Ux, Initial residual = 0.00501496, Final residual = 4.76726e-09, No Iterations 3
DILUPBiCGStab:  Solving for Uy, Initial residual = 0.00501783, Final residual = 5.44033e-09, No Iterations 3
DILUPBiCGStab:  Solving for O2, Initial residual = 0.00198985, Final residual = 1.29796e-09, No Iterations 3
DILUPBiCGStab:  Solving for H2O, Initial residual = 0.00198985, Final residual = 1.29796e-09, No Iterations 3
DILUPBiCGStab:  Solving for CH4, Initial residual = 0, Final residual = 0, No Iterations 0
DILUPBiCGStab:  Solving for CO2, Initial residual = 0.00198985, Final residual = 1.29796e-09, No Iterations 3
DILUPBiCGStab:  Solving for h, Initial residual = 0.00229617, Final residual = 1.33453e-09, No Iterations 3
min/max(T) = 300, 1044.98
GAMGPCG:  Solving for p_rgh, Initial residual = 0.0281547, Final residual = 5.44571e-07, No Iterations 4
diagonal:  Solving for rho, Initial residual = 0, Final residual = 0, No Iterations 0
time step continuity errors : sum local = 1.56526e-08, global = -4.04941e-09, cumulative = 1.12705e-07
GAMGPCG:  Solving for p_rgh, Initial residual = 0.0040469, Final residual = 2.0149e-07, No Iterations 4
diagonal:  Solving for rho, Initial residual = 0, Final residual = 0, No Iterations 0
time step continuity errors : sum local = 5.62159e-09, global = 1.1941e-10, cumulative = 1.12824e-07
DILUPBiCGStab:  Solving for omega, Initial residual = 9.22904e-05, Final residual = 1.30952e-09, No Iterations 2
DILUPBiCGStab:  Solving for k, Initial residual = 0.00350384, Final residual = 2.7517e-09, No Iterations 3

ExecutionTime = 290.71 s  ClockTime = 291 s

    Overall     = 0.00113749, 0.01
Time = 2498

diagonal:  Solving for rho, Initial residual = 0, Final residual = 0, No Iterations 0

Execution time for mesh.update() = 0 s

DILUPBiCGStab:  Solving for Ux, Initial residual = 0.0049339, Final residual = 4.88065e-09, No Iterations 3
DILUPBiCGStab:  Solving for Uy, Initial residual = 0.00497769, Final residual = 6.26433e-09, No Iterations 3
DILUPBiCGStab:  Solving for O2, Initial residual = 0.00199485, Final residual = 1.3067e-09, No Iterations 3
DILUPBiCGStab:  Solving for H2O, Initial residual = 0.00199485, Final residual = 1.30671e-09, No Iterations 3
DILUPBiCGStab:  Solving for CH4, Initial residual = 0, Final residual = 0, No Iterations 0
DILUPBiCGStab:  Solving for CO2, Initial residual = 0.00199485, Final residual = 1.30671e-09, No Iterations 3
DILUPBiCGStab:  Solving for h, Initial residual = 0.0022989, Final residual = 1.33694e-09, No Iterations 3
min/max(T) = 299.951, 1044.98
GAMGPCG:  Solving for p_rgh, Initial residual = 0.0278201, Final residual = 3.55393e-07, No Iterations 4
diagonal:  Solving for rho, Initial residual = 0, Final residual = 0, No Iterations 0
time step continuity errors : sum local = 1.02042e-08, global = -2.56316e-09, cumulative = 1.10261e-07
GAMGPCG:  Solving for p_rgh, Initial residual = 0.0039573, Final residual = 1.65886e-07, No Iterations 4
diagonal:  Solving for rho, Initial residual = 0, Final residual = 0, No Iterations 0
time step continuity errors : sum local = 4.70403e-09, global = 6.41083e-10, cumulative = 1.10902e-07
DILUPBiCGStab:  Solving for omega, Initial residual = 9.21911e-05, Final residual = 1.3605e-09, No Iterations 2
DILUPBiCGStab:  Solving for k, Initial residual = 0.00349128, Final residual = 2.64296e-09, No Iterations 3

ExecutionTime = 290.82 s  ClockTime = 291 s

    Overall     = 0.00110594, 0.01
Time = 2499

diagonal:  Solving for rho, Initial residual = 0, Final residual = 0, No Iterations 0

Execution time for mesh.update() = 0 s

DILUPBiCGStab:  Solving for Ux, Initial residual = 0.00487252, Final residual = 5.60524e-09, No Iterations 3
DILUPBiCGStab:  Solving for Uy, Initial residual = 0.0049343, Final residual = 5.17769e-09, No Iterations 3
DILUPBiCGStab:  Solving for O2, Initial residual = 0.00199188, Final residual = 1.4432e-09, No Iterations 3
DILUPBiCGStab:  Solving for H2O, Initial residual = 0.00199188, Final residual = 1.44321e-09, No Iterations 3
DILUPBiCGStab:  Solving for CH4, Initial residual = 0, Final residual = 0, No Iterations 0
DILUPBiCGStab:  Solving for CO2, Initial residual = 0.00199188, Final residual = 1.44321e-09, No Iterations 3
DILUPBiCGStab:  Solving for h, Initial residual = 0.00229525, Final residual = 1.41426e-09, No Iterations 3
min/max(T) = 299.928, 1044.98
GAMGPCG:  Solving for p_rgh, Initial residual = 0.0266686, Final residual = 5.06989e-07, No Iterations 4
diagonal:  Solving for rho, Initial residual = 0, Final residual = 0, No Iterations 0
time step continuity errors : sum local = 1.4593e-08, global = -4.51844e-09, cumulative = 1.06383e-07
GAMGPCG:  Solving for p_rgh, Initial residual = 0.00367846, Final residual = 1.76326e-07, No Iterations 4
diagonal:  Solving for rho, Initial residual = 0, Final residual = 0, No Iterations 0
time step continuity errors : sum local = 4.95734e-09, global = 4.5395e-10, cumulative = 1.06837e-07
DILUPBiCGStab:  Solving for omega, Initial residual = 8.96144e-05, Final residual = 1.4256e-09, No Iterations 2
DILUPBiCGStab:  Solving for k, Initial residual = 0.00347635, Final residual = 2.12678e-09, No Iterations 3

ExecutionTime = 290.94 s  ClockTime = 291 s

    Overall     = 0.00113574, 0.01
Time = 2500

diagonal:  Solving for rho, Initial residual = 0, Final residual = 0, No Iterations 0

Execution time for mesh.update() = 0 s

DILUPBiCGStab:  Solving for Ux, Initial residual = 0.00479597, Final residual = 5.91871e-09, No Iterations 3
DILUPBiCGStab:  Solving for Uy, Initial residual = 0.0048264, Final residual = 5.84737e-09, No Iterations 3
GAMGPCG:  Solving for G, Initial residual = 0.235972, Final residual = 2.89494e-05, No Iterations 6
DILUPBiCGStab:  Solving for O2, Initial residual = 0.00199895, Final residual = 1.64912e-09, No Iterations 3
DILUPBiCGStab:  Solving for H2O, Initial residual = 0.00199899, Final residual = 1.64914e-09, No Iterations 3
DILUPBiCGStab:  Solving for CH4, Initial residual = 0, Final residual = 0, No Iterations 0
DILUPBiCGStab:  Solving for CO2, Initial residual = 0.00199899, Final residual = 1.64914e-09, No Iterations 3
DILUPBiCGStab:  Solving for h, Initial residual = 0.00230981, Final residual = 1.61109e-09, No Iterations 3
min/max(T) = 299.94, 1044.98
GAMGPCG:  Solving for p_rgh, Initial residual = 0.025807, Final residual = 4.23262e-07, No Iterations 4
diagonal:  Solving for rho, Initial residual = 0, Final residual = 0, No Iterations 0
time step continuity errors : sum local = 1.17441e-08, global = -2.96191e-10, cumulative = 1.06541e-07
GAMGPCG:  Solving for p_rgh, Initial residual = 0.00350942, Final residual = 1.79283e-07, No Iterations 4
diagonal:  Solving for rho, Initial residual = 0, Final residual = 0, No Iterations 0
time step continuity errors : sum local = 5.08901e-09, global = 1.23578e-09, cumulative = 1.07777e-07
DILUPBiCGStab:  Solving for omega, Initial residual = 8.9529e-05, Final residual = 1.36381e-09, No Iterations 2
DILUPBiCGStab:  Solving for k, Initial residual = 0.00344519, Final residual = 1.97387e-09, No Iterations 3

ExecutionTime = 291.19 s  ClockTime = 291 s


Patch Mean : 301.727
Patch Variance : 0.00494155
Patch Gradient : 0.121071
End
