/*---------------------------------------------------------------------------*\
  =========                 |
  \\      /  F ield         | OpenFOAM: The Open Source CFD Toolbox
   \\    /   O peration     | Website:  https://openfoam.org
    \\  /    A nd           | Version:  dev
     \\/     M anipulation  |
\*---------------------------------------------------------------------------*/
Build  : dev-cabe48fb62c1
Exec   : fireDyMFoam
Date   : Apr 15 2019
Time   : 13:11:49
Host   : "Host"
PID    : 3769
I/O    : uncollated
Case   : /home/tesla/OpenFOAM/tesla-dev/run/rollerOpt_COBYLA_NEW
nProcs : 1
sigFpe : Enabling floating point exception trapping (FOAM_SIGFPE).
fileModificationChecking : Monitoring run-time modified files using timeStampMaster (fileModificationSkew 10)
allowSystemOperations : Allowing user-supplied system call operations

// * * * * * * * * * * * * * * * * * * * * * * * * * * * * * * * * * * * * * //
Create time

--> FOAM Warning : 
    From function void* Foam::dlOpen(const Foam::fileName&, bool)
    in file POSIX.C at line 1268
    dlopen error : libgroovyBC.so: cannot open shared object file: No such file or directory
--> FOAM Warning : 
    From function bool Foam::dlLibraryTable::open(const Foam::fileName&, bool)
    in file db/dynamicLibrary/dlLibraryTable/dlLibraryTable.C at line 105
    could not load "libgroovyBC.so"
Create mesh for time = 250

Selecting dynamicFvMesh dynamicRefineFvMesh
Detected 538 cells that are protected from refinement. Writing these to cellSet protectedCells.

PIMPLE: No convergence criteria found


PIMPLE: Operating solver in PISO mode


Initializing Solver

Selecting thermodynamics package 
{
    type            hePsiThermo;
    mixture         reactingMixture;
    transport       sutherland;
    thermo          janaf;
    energy          sensibleEnthalpy;
    equationOfState perfectGas;
    specie          specie;
}

Selecting chemistryReader foamChemistryReader
    elements not defined in "/home/tesla/OpenFOAM/tesla-dev/run/rollerOpt_COBYLA_NEW/constant/reactions"
Reading/calculating face flux field phi

No MRF models present

Selecting turbulence model type RAS
Selecting RAS turbulence model kOmegaSST
Selecting patchDistMethod meshWave
kOmegaSSTCoeffs
{
    delta           cubeRootVol;
    cubeRootVolCoeffs
    {
        deltaCoeff      1;
    }
    alphaK1         0.85;
    alphaK2         1;
    alphaOmega1     0.5;
    alphaOmega2     0.856;
    gamma1          0.555556;
    gamma2          0.44;
    beta1           0.075;
    beta2           0.0828;
    betaStar        0.09;
    a1              0.31;
    b1              1;
    c1              10;
    F3              false;
}

Selecting combustion model none<psiThermoCombustion>
--> FOAM Warning : 
    From function static Foam::autoPtr<T> Foam::combustionModel::New(typename CombustionModel::reactionThermo&, const Foam::compressibleTurbulenceModel&, const Foam::word&) [with CombustionModel = Foam::CombustionModel<Foam::psiReactionThermo>; typename CombustionModel::reactionThermo = Foam::psiReactionThermo]
    in file /home/tesla/OpenFOAM/OpenFOAM-dev/src/combustionModels/lnInclude/combustionModelTemplates.C at line 69
    Template parameters are no longer required when selecting a combustionModel. This information is now obtained directly from the thermodynamics. Actually selecting combustion model none.

Reading g

Reading hRef
Calculating field g.h


Reading pRef
Selecting radiationModel P1
Selecting absorptionEmissionModel greyMeanAbsorptionEmission
Selecting scatterModel none
Selecting sootModel none
Creating finite volume options from "system/fvOptions"

No finite volume options present
Using LTS

Starting time loop

Using dynamicCode for functionObject patchCalcs at line 64 in "/home/tesla/OpenFOAM/tesla-dev/run/rollerOpt_COBYLA_NEW/system/controlDict.functions.patchCalcs"
    Overall     = 0.00132257, 0.01
Time = 251

diagonal:  Solving for rho, Initial residual = 0, Final residual = 0, No Iterations 0

Execution time for mesh.update() = 0 s

DILUPBiCGStab:  Solving for Ux, Initial residual = 0.00456248, Final residual = 6.44252e-09, No Iterations 3
DILUPBiCGStab:  Solving for Uy, Initial residual = 0.00754915, Final residual = 9.58558e-09, No Iterations 3
GAMGPCG:  Solving for G, Initial residual = 0.0236546, Final residual = 3.96254e-05, No Iterations 4
DILUPBiCGStab:  Solving for O2, Initial residual = 0.00276269, Final residual = 2.57211e-09, No Iterations 3
DILUPBiCGStab:  Solving for H2O, Initial residual = 0.00276265, Final residual = 2.5725e-09, No Iterations 3
DILUPBiCGStab:  Solving for CH4, Initial residual = 0, Final residual = 0, No Iterations 0
DILUPBiCGStab:  Solving for CO2, Initial residual = 0.00276265, Final residual = 2.57249e-09, No Iterations 3
DILUPBiCGStab:  Solving for h, Initial residual = 0.00305283, Final residual = 2.34867e-09, No Iterations 3
min/max(T) = 300, 1044.97
GAMGPCG:  Solving for p_rgh, Initial residual = 0.0165131, Final residual = 7.59429e-07, No Iterations 4
diagonal:  Solving for rho, Initial residual = 0, Final residual = 0, No Iterations 0
time step continuity errors : sum local = 2.46821e-06, global = -1.2619e-07, cumulative = -1.2619e-07
GAMGPCG:  Solving for p_rgh, Initial residual = 0.00212564, Final residual = 1.45353e-07, No Iterations 4
diagonal:  Solving for rho, Initial residual = 0, Final residual = 0, No Iterations 0
time step continuity errors : sum local = 2.46242e-06, global = -1.23083e-07, cumulative = -2.49273e-07
DILUPBiCGStab:  Solving for omega, Initial residual = 9.59972e-05, Final residual = 1.32761e-09, No Iterations 2
DILUPBiCGStab:  Solving for k, Initial residual = 0.00488009, Final residual = 2.39998e-09, No Iterations 3

ExecutionTime = 0.38 s  ClockTime = 0 s

    Overall     = 0.00132442, 0.01
Time = 252

diagonal:  Solving for rho, Initial residual = 0, Final residual = 0, No Iterations 0

Execution time for mesh.update() = 0 s

DILUPBiCGStab:  Solving for Ux, Initial residual = 0.00455964, Final residual = 6.33513e-09, No Iterations 3
DILUPBiCGStab:  Solving for Uy, Initial residual = 0.00752114, Final residual = 9.44133e-09, No Iterations 3
DILUPBiCGStab:  Solving for O2, Initial residual = 0.00276659, Final residual = 2.38446e-09, No Iterations 3
DILUPBiCGStab:  Solving for H2O, Initial residual = 0.00276658, Final residual = 2.38469e-09, No Iterations 3
DILUPBiCGStab:  Solving for CH4, Initial residual = 0, Final residual = 0, No Iterations 0
DILUPBiCGStab:  Solving for CO2, Initial residual = 0.00276658, Final residual = 2.3847e-09, No Iterations 3
DILUPBiCGStab:  Solving for h, Initial residual = 0.00305525, Final residual = 2.16999e-09, No Iterations 3
min/max(T) = 300, 1044.97
GAMGPCG:  Solving for p_rgh, Initial residual = 0.0164265, Final residual = 7.57369e-07, No Iterations 4
diagonal:  Solving for rho, Initial residual = 0, Final residual = 0, No Iterations 0
time step continuity errors : sum local = 4.79617e-08, global = -3.99587e-09, cumulative = -2.53269e-07
GAMGPCG:  Solving for p_rgh, Initial residual = 0.00199349, Final residual = 9.71687e-07, No Iterations 3
diagonal:  Solving for rho, Initial residual = 0, Final residual = 0, No Iterations 0
time step continuity errors : sum local = 5.8151e-08, global = 1.35131e-09, cumulative = -2.51918e-07
DILUPBiCGStab:  Solving for omega, Initial residual = 9.48877e-05, Final residual = 1.29651e-09, No Iterations 2
DILUPBiCGStab:  Solving for k, Initial residual = 0.0048826, Final residual = 2.49534e-09, No Iterations 3

ExecutionTime = 0.5 s  ClockTime = 0 s

    Overall     = 0.00132747, 0.01
Time = 253

diagonal:  Solving for rho, Initial residual = 0, Final residual = 0, No Iterations 0

Execution time for mesh.update() = 0 s

DILUPBiCGStab:  Solving for Ux, Initial residual = 0.00457268, Final residual = 5.38011e-09, No Iterations 3
DILUPBiCGStab:  Solving for Uy, Initial residual = 0.00748767, Final residual = 8.76791e-09, No Iterations 3
DILUPBiCGStab:  Solving for O2, Initial residual = 0.00277118, Final residual = 2.3919e-09, No Iterations 3
DILUPBiCGStab:  Solving for H2O, Initial residual = 0.00277116, Final residual = 2.39202e-09, No Iterations 3
DILUPBiCGStab:  Solving for CH4, Initial residual = 0, Final residual = 0, No Iterations 0
DILUPBiCGStab:  Solving for CO2, Initial residual = 0.00277116, Final residual = 2.392e-09, No Iterations 3
DILUPBiCGStab:  Solving for h, Initial residual = 0.00306705, Final residual = 2.11587e-09, No Iterations 3
min/max(T) = 300, 1044.97
GAMGPCG:  Solving for p_rgh, Initial residual = 0.0169401, Final residual = 6.76554e-07, No Iterations 4
diagonal:  Solving for rho, Initial residual = 0, Final residual = 0, No Iterations 0
time step continuity errors : sum local = 4.26155e-08, global = -3.1601e-09, cumulative = -2.55078e-07
GAMGPCG:  Solving for p_rgh, Initial residual = 0.00207359, Final residual = 1.56982e-07, No Iterations 4
diagonal:  Solving for rho, Initial residual = 0, Final residual = 0, No Iterations 0
time step continuity errors : sum local = 9.34916e-09, global = -4.91542e-12, cumulative = -2.55083e-07
DILUPBiCGStab:  Solving for omega, Initial residual = 9.57283e-05, Final residual = 1.32524e-09, No Iterations 2
DILUPBiCGStab:  Solving for k, Initial residual = 0.00489134, Final residual = 2.56656e-09, No Iterations 3

ExecutionTime = 0.61 s  ClockTime = 0 s

    Overall     = 0.0013298, 0.01
Time = 254

diagonal:  Solving for rho, Initial residual = 0, Final residual = 0, No Iterations 0

Execution time for mesh.update() = 0 s

DILUPBiCGStab:  Solving for Ux, Initial residual = 0.00458624, Final residual = 5.17386e-09, No Iterations 3
DILUPBiCGStab:  Solving for Uy, Initial residual = 0.00749906, Final residual = 8.41692e-09, No Iterations 3
DILUPBiCGStab:  Solving for O2, Initial residual = 0.00277166, Final residual = 2.28667e-09, No Iterations 3
DILUPBiCGStab:  Solving for H2O, Initial residual = 0.00277165, Final residual = 2.2867e-09, No Iterations 3
DILUPBiCGStab:  Solving for CH4, Initial residual = 0, Final residual = 0, No Iterations 0
DILUPBiCGStab:  Solving for CO2, Initial residual = 0.00277165, Final residual = 2.2867e-09, No Iterations 3
DILUPBiCGStab:  Solving for h, Initial residual = 0.00307095, Final residual = 1.99885e-09, No Iterations 3
min/max(T) = 300, 1044.97
GAMGPCG:  Solving for p_rgh, Initial residual = 0.0167733, Final residual = 6.78477e-07, No Iterations 4
diagonal:  Solving for rho, Initial residual = 0, Final residual = 0, No Iterations 0
time step continuity errors : sum local = 4.28441e-08, global = -4.81206e-09, cumulative = -2.59895e-07
GAMGPCG:  Solving for p_rgh, Initial residual = 0.00203264, Final residual = 1.80617e-07, No Iterations 4
diagonal:  Solving for rho, Initial residual = 0, Final residual = 0, No Iterations 0
time step continuity errors : sum local = 1.07281e-08, global = 3.37039e-10, cumulative = -2.59558e-07
DILUPBiCGStab:  Solving for omega, Initial residual = 9.5699e-05, Final residual = 1.28491e-09, No Iterations 2
DILUPBiCGStab:  Solving for k, Initial residual = 0.00490032, Final residual = 2.66304e-09, No Iterations 3

ExecutionTime = 0.73 s  ClockTime = 0 s

    Overall     = 0.00133345, 0.01
Time = 255

diagonal:  Solving for rho, Initial residual = 0, Final residual = 0, No Iterations 0

Execution time for mesh.update() = 0 s

DILUPBiCGStab:  Solving for Ux, Initial residual = 0.00458748, Final residual = 4.39786e-09, No Iterations 3
DILUPBiCGStab:  Solving for Uy, Initial residual = 0.00746525, Final residual = 7.78213e-09, No Iterations 3
DILUPBiCGStab:  Solving for O2, Initial residual = 0.00277683, Final residual = 2.05177e-09, No Iterations 3
DILUPBiCGStab:  Solving for H2O, Initial residual = 0.00277682, Final residual = 2.05177e-09, No Iterations 3
DILUPBiCGStab:  Solving for CH4, Initial residual = 0, Final residual = 0, No Iterations 0
DILUPBiCGStab:  Solving for CO2, Initial residual = 0.00277683, Final residual = 2.05176e-09, No Iterations 3
DILUPBiCGStab:  Solving for h, Initial residual = 0.00308186, Final residual = 1.77324e-09, No Iterations 3
min/max(T) = 300, 1044.97
GAMGPCG:  Solving for p_rgh, Initial residual = 0.0170874, Final residual = 5.6711e-07, No Iterations 4
diagonal:  Solving for rho, Initial residual = 0, Final residual = 0, No Iterations 0
time step continuity errors : sum local = 3.56412e-08, global = -3.06655e-09, cumulative = -2.62624e-07
GAMGPCG:  Solving for p_rgh, Initial residual = 0.0020025, Final residual = 1.86043e-07, No Iterations 4
diagonal:  Solving for rho, Initial residual = 0, Final residual = 0, No Iterations 0
time step continuity errors : sum local = 1.10578e-08, global = 1.77249e-10, cumulative = -2.62447e-07
DILUPBiCGStab:  Solving for omega, Initial residual = 9.5376e-05, Final residual = 1.17593e-09, No Iterations 2
DILUPBiCGStab:  Solving for k, Initial residual = 0.00490763, Final residual = 2.58369e-09, No Iterations 3

ExecutionTime = 0.84 s  ClockTime = 1 s

    Overall     = 0.00133644, 0.01
Time = 256

diagonal:  Solving for rho, Initial residual = 0, Final residual = 0, No Iterations 0

Execution time for mesh.update() = 0 s

DILUPBiCGStab:  Solving for Ux, Initial residual = 0.00460184, Final residual = 4.0444e-09, No Iterations 3
DILUPBiCGStab:  Solving for Uy, Initial residual = 0.00747688, Final residual = 7.33241e-09, No Iterations 3
DILUPBiCGStab:  Solving for O2, Initial residual = 0.00277865, Final residual = 2.21284e-09, No Iterations 3
DILUPBiCGStab:  Solving for H2O, Initial residual = 0.00277865, Final residual = 2.21281e-09, No Iterations 3
DILUPBiCGStab:  Solving for CH4, Initial residual = 0, Final residual = 0, No Iterations 0
DILUPBiCGStab:  Solving for CO2, Initial residual = 0.00277865, Final residual = 2.21281e-09, No Iterations 3
DILUPBiCGStab:  Solving for h, Initial residual = 0.00308811, Final residual = 1.7802e-09, No Iterations 3
min/max(T) = 300, 1044.97
GAMGPCG:  Solving for p_rgh, Initial residual = 0.0173657, Final residual = 6.51378e-07, No Iterations 4
diagonal:  Solving for rho, Initial residual = 0, Final residual = 0, No Iterations 0
time step continuity errors : sum local = 4.04088e-08, global = -4.0549e-09, cumulative = -2.66502e-07
GAMGPCG:  Solving for p_rgh, Initial residual = 0.00200742, Final residual = 9.65222e-07, No Iterations 3
diagonal:  Solving for rho, Initial residual = 0, Final residual = 0, No Iterations 0
time step continuity errors : sum local = 5.6745e-08, global = -1.83556e-10, cumulative = -2.66686e-07
DILUPBiCGStab:  Solving for omega, Initial residual = 9.61335e-05, Final residual = 1.09356e-09, No Iterations 2
DILUPBiCGStab:  Solving for k, Initial residual = 0.00490304, Final residual = 2.42901e-09, No Iterations 3

ExecutionTime = 0.96 s  ClockTime = 1 s

    Overall     = 0.00133987, 0.01
Time = 257

diagonal:  Solving for rho, Initial residual = 0, Final residual = 0, No Iterations 0

Execution time for mesh.update() = 0 s

DILUPBiCGStab:  Solving for Ux, Initial residual = 0.00460263, Final residual = 4.0016e-09, No Iterations 3
DILUPBiCGStab:  Solving for Uy, Initial residual = 0.00745176, Final residual = 6.82678e-09, No Iterations 3
DILUPBiCGStab:  Solving for O2, Initial residual = 0.00278026, Final residual = 2.16014e-09, No Iterations 3
DILUPBiCGStab:  Solving for H2O, Initial residual = 0.00278026, Final residual = 2.16014e-09, No Iterations 3
DILUPBiCGStab:  Solving for CH4, Initial residual = 0, Final residual = 0, No Iterations 0
DILUPBiCGStab:  Solving for CO2, Initial residual = 0.00278026, Final residual = 2.16014e-09, No Iterations 3
DILUPBiCGStab:  Solving for h, Initial residual = 0.00309567, Final residual = 1.66566e-09, No Iterations 3
min/max(T) = 300, 1044.97
GAMGPCG:  Solving for p_rgh, Initial residual = 0.0173248, Final residual = 4.69146e-07, No Iterations 4
diagonal:  Solving for rho, Initial residual = 0, Final residual = 0, No Iterations 0
time step continuity errors : sum local = 2.89256e-08, global = -1.44222e-09, cumulative = -2.68128e-07
GAMGPCG:  Solving for p_rgh, Initial residual = 0.00197747, Final residual = 1.4551e-07, No Iterations 4
diagonal:  Solving for rho, Initial residual = 0, Final residual = 0, No Iterations 0
time step continuity errors : sum local = 8.65281e-09, global = -2.30796e-10, cumulative = -2.68359e-07
DILUPBiCGStab:  Solving for omega, Initial residual = 9.6623e-05, Final residual = 9.70682e-10, No Iterations 2
DILUPBiCGStab:  Solving for k, Initial residual = 0.00490813, Final residual = 2.19108e-09, No Iterations 3

ExecutionTime = 1.07 s  ClockTime = 1 s

    Overall     = 0.00134304, 0.01
Time = 258

diagonal:  Solving for rho, Initial residual = 0, Final residual = 0, No Iterations 0

Execution time for mesh.update() = 0 s

DILUPBiCGStab:  Solving for Ux, Initial residual = 0.00462345, Final residual = 3.89559e-09, No Iterations 3
DILUPBiCGStab:  Solving for Uy, Initial residual = 0.00744483, Final residual = 7.04078e-09, No Iterations 3
DILUPBiCGStab:  Solving for O2, Initial residual = 0.00278261, Final residual = 2.16714e-09, No Iterations 3
DILUPBiCGStab:  Solving for H2O, Initial residual = 0.00278261, Final residual = 2.16712e-09, No Iterations 3
DILUPBiCGStab:  Solving for CH4, Initial residual = 0, Final residual = 0, No Iterations 0
DILUPBiCGStab:  Solving for CO2, Initial residual = 0.00278261, Final residual = 2.1671e-09, No Iterations 3
DILUPBiCGStab:  Solving for h, Initial residual = 0.00310836, Final residual = 1.56247e-09, No Iterations 3
min/max(T) = 300, 1044.97
GAMGPCG:  Solving for p_rgh, Initial residual = 0.0180443, Final residual = 5.50409e-07, No Iterations 4
diagonal:  Solving for rho, Initial residual = 0, Final residual = 0, No Iterations 0
time step continuity errors : sum local = 3.32362e-08, global = -1.03486e-09, cumulative = -2.69393e-07
GAMGPCG:  Solving for p_rgh, Initial residual = 0.00205635, Final residual = 9.81609e-07, No Iterations 3
diagonal:  Solving for rho, Initial residual = 0, Final residual = 0, No Iterations 0
time step continuity errors : sum local = 5.75479e-08, global = -3.15037e-10, cumulative = -2.69708e-07
DILUPBiCGStab:  Solving for omega, Initial residual = 9.57817e-05, Final residual = 9.36027e-10, No Iterations 2
DILUPBiCGStab:  Solving for k, Initial residual = 0.00492164, Final residual = 2.15056e-09, No Iterations 3

ExecutionTime = 1.18 s  ClockTime = 1 s

    Overall     = 0.00134684, 0.01
Time = 259

diagonal:  Solving for rho, Initial residual = 0, Final residual = 0, No Iterations 0

Execution time for mesh.update() = 0.01 s

DILUPBiCGStab:  Solving for Ux, Initial residual = 0.00461514, Final residual = 3.79562e-09, No Iterations 3
DILUPBiCGStab:  Solving for Uy, Initial residual = 0.00743509, Final residual = 6.76845e-09, No Iterations 3
DILUPBiCGStab:  Solving for O2, Initial residual = 0.00278663, Final residual = 1.94037e-09, No Iterations 3
DILUPBiCGStab:  Solving for H2O, Initial residual = 0.00278663, Final residual = 1.94037e-09, No Iterations 3
DILUPBiCGStab:  Solving for CH4, Initial residual = 0, Final residual = 0, No Iterations 0
DILUPBiCGStab:  Solving for CO2, Initial residual = 0.00278663, Final residual = 1.94038e-09, No Iterations 3
DILUPBiCGStab:  Solving for h, Initial residual = 0.00311179, Final residual = 1.5573e-09, No Iterations 3
min/max(T) = 300, 1044.97
GAMGPCG:  Solving for p_rgh, Initial residual = 0.0180555, Final residual = 4.90453e-07, No Iterations 4
diagonal:  Solving for rho, Initial residual = 0, Final residual = 0, No Iterations 0
time step continuity errors : sum local = 2.95213e-08, global = -5.207e-10, cumulative = -2.70229e-07
GAMGPCG:  Solving for p_rgh, Initial residual = 0.00204795, Final residual = 1.56956e-07, No Iterations 4
diagonal:  Solving for rho, Initial residual = 0, Final residual = 0, No Iterations 0
time step continuity errors : sum local = 9.30659e-09, global = 2.93897e-11, cumulative = -2.702e-07
DILUPBiCGStab:  Solving for omega, Initial residual = 9.64509e-05, Final residual = 9.13736e-10, No Iterations 2
DILUPBiCGStab:  Solving for k, Initial residual = 0.00492691, Final residual = 1.8486e-09, No Iterations 3

ExecutionTime = 1.3 s  ClockTime = 1 s

    Overall     = 0.00135101, 0.01
Time = 260

diagonal:  Solving for rho, Initial residual = 0, Final residual = 0, No Iterations 0

Execution time for mesh.update() = 0 s

DILUPBiCGStab:  Solving for Ux, Initial residual = 0.00461211, Final residual = 3.80536e-09, No Iterations 3
DILUPBiCGStab:  Solving for Uy, Initial residual = 0.00740124, Final residual = 6.53983e-09, No Iterations 3
GAMGPCG:  Solving for G, Initial residual = 0.115082, Final residual = 7.77033e-05, No Iterations 5
DILUPBiCGStab:  Solving for O2, Initial residual = 0.00278725, Final residual = 1.84046e-09, No Iterations 3
DILUPBiCGStab:  Solving for H2O, Initial residual = 0.00278725, Final residual = 1.84047e-09, No Iterations 3
DILUPBiCGStab:  Solving for CH4, Initial residual = 0, Final residual = 0, No Iterations 0
DILUPBiCGStab:  Solving for CO2, Initial residual = 0.00278725, Final residual = 1.84047e-09, No Iterations 3
DILUPBiCGStab:  Solving for h, Initial residual = 0.00312126, Final residual = 1.5064e-09, No Iterations 3
min/max(T) = 300, 1044.97
GAMGPCG:  Solving for p_rgh, Initial residual = 0.0180071, Final residual = 6.22541e-07, No Iterations 4
diagonal:  Solving for rho, Initial residual = 0, Final residual = 0, No Iterations 0
time step continuity errors : sum local = 3.76351e-08, global = 2.42142e-10, cumulative = -2.69958e-07
GAMGPCG:  Solving for p_rgh, Initial residual = 0.00208097, Final residual = 8.95283e-07, No Iterations 3
diagonal:  Solving for rho, Initial residual = 0, Final residual = 0, No Iterations 0
time step continuity errors : sum local = 5.23116e-08, global = -7.20087e-10, cumulative = -2.70678e-07
DILUPBiCGStab:  Solving for omega, Initial residual = 9.56422e-05, Final residual = 9.1364e-10, No Iterations 2
DILUPBiCGStab:  Solving for k, Initial residual = 0.00493203, Final residual = 1.83829e-09, No Iterations 3

ExecutionTime = 1.55 s  ClockTime = 1 s

    Overall     = 0.00135526, 0.01
Time = 261

diagonal:  Solving for rho, Initial residual = 0, Final residual = 0, No Iterations 0

Execution time for mesh.update() = 0 s

DILUPBiCGStab:  Solving for Ux, Initial residual = 0.00461594, Final residual = 3.67381e-09, No Iterations 3
DILUPBiCGStab:  Solving for Uy, Initial residual = 0.00738876, Final residual = 6.30322e-09, No Iterations 3
DILUPBiCGStab:  Solving for O2, Initial residual = 0.00279473, Final residual = 1.75384e-09, No Iterations 3
DILUPBiCGStab:  Solving for H2O, Initial residual = 0.00279473, Final residual = 1.75385e-09, No Iterations 3
DILUPBiCGStab:  Solving for CH4, Initial residual = 0, Final residual = 0, No Iterations 0
DILUPBiCGStab:  Solving for CO2, Initial residual = 0.00279473, Final residual = 1.75385e-09, No Iterations 3
DILUPBiCGStab:  Solving for h, Initial residual = 0.00313455, Final residual = 1.57083e-09, No Iterations 3
min/max(T) = 300, 1044.97
GAMGPCG:  Solving for p_rgh, Initial residual = 0.0184589, Final residual = 4.7463e-07, No Iterations 4
diagonal:  Solving for rho, Initial residual = 0, Final residual = 0, No Iterations 0
time step continuity errors : sum local = 2.83585e-08, global = -1.74916e-10, cumulative = -2.70853e-07
GAMGPCG:  Solving for p_rgh, Initial residual = 0.00198684, Final residual = 1.84971e-07, No Iterations 4
diagonal:  Solving for rho, Initial residual = 0, Final residual = 0, No Iterations 0
time step continuity errors : sum local = 1.10369e-08, global = 2.27077e-10, cumulative = -2.70626e-07
DILUPBiCGStab:  Solving for omega, Initial residual = 9.60209e-05, Final residual = 9.02601e-10, No Iterations 2
DILUPBiCGStab:  Solving for k, Initial residual = 0.00494033, Final residual = 1.82528e-09, No Iterations 3

ExecutionTime = 1.67 s  ClockTime = 1 s

    Overall     = 0.00135977, 0.01
Time = 262

diagonal:  Solving for rho, Initial residual = 0, Final residual = 0, No Iterations 0

Execution time for mesh.update() = 0 s

DILUPBiCGStab:  Solving for Ux, Initial residual = 0.00462188, Final residual = 3.5693e-09, No Iterations 3
DILUPBiCGStab:  Solving for Uy, Initial residual = 0.00737491, Final residual = 6.14907e-09, No Iterations 3
DILUPBiCGStab:  Solving for O2, Initial residual = 0.00279183, Final residual = 1.79089e-09, No Iterations 3
DILUPBiCGStab:  Solving for H2O, Initial residual = 0.00279183, Final residual = 1.7909e-09, No Iterations 3
DILUPBiCGStab:  Solving for CH4, Initial residual = 0, Final residual = 0, No Iterations 0
DILUPBiCGStab:  Solving for CO2, Initial residual = 0.00279183, Final residual = 1.7909e-09, No Iterations 3
DILUPBiCGStab:  Solving for h, Initial residual = 0.00313688, Final residual = 1.5426e-09, No Iterations 3
min/max(T) = 300, 1044.97
GAMGPCG:  Solving for p_rgh, Initial residual = 0.0183757, Final residual = 6.14266e-07, No Iterations 4
diagonal:  Solving for rho, Initial residual = 0, Final residual = 0, No Iterations 0
time step continuity errors : sum local = 3.67066e-08, global = -3.74947e-10, cumulative = -2.71e-07
GAMGPCG:  Solving for p_rgh, Initial residual = 0.00210964, Final residual = 7.89981e-07, No Iterations 3
diagonal:  Solving for rho, Initial residual = 0, Final residual = 0, No Iterations 0
time step continuity errors : sum local = 4.57338e-08, global = -1.34754e-09, cumulative = -2.72348e-07
DILUPBiCGStab:  Solving for omega, Initial residual = 9.61711e-05, Final residual = 9.31238e-10, No Iterations 2
DILUPBiCGStab:  Solving for k, Initial residual = 0.0049496, Final residual = 1.65944e-09, No Iterations 3

ExecutionTime = 1.78 s  ClockTime = 1 s

    Overall     = 0.00136469, 0.01
Time = 263

diagonal:  Solving for rho, Initial residual = 0, Final residual = 0, No Iterations 0

Execution time for mesh.update() = 0 s

DILUPBiCGStab:  Solving for Ux, Initial residual = 0.00462079, Final residual = 3.47095e-09, No Iterations 3
DILUPBiCGStab:  Solving for Uy, Initial residual = 0.00735066, Final residual = 5.77066e-09, No Iterations 3
DILUPBiCGStab:  Solving for O2, Initial residual = 0.00279606, Final residual = 1.8911e-09, No Iterations 3
DILUPBiCGStab:  Solving for H2O, Initial residual = 0.00279606, Final residual = 1.8911e-09, No Iterations 3
DILUPBiCGStab:  Solving for CH4, Initial residual = 0, Final residual = 0, No Iterations 0
DILUPBiCGStab:  Solving for CO2, Initial residual = 0.00279606, Final residual = 1.8911e-09, No Iterations 3
DILUPBiCGStab:  Solving for h, Initial residual = 0.00315571, Final residual = 1.70171e-09, No Iterations 3
min/max(T) = 300, 1044.97
GAMGPCG:  Solving for p_rgh, Initial residual = 0.0187152, Final residual = 3.20566e-07, No Iterations 4
diagonal:  Solving for rho, Initial residual = 0, Final residual = 0, No Iterations 0
time step continuity errors : sum local = 1.90407e-08, global = 1.28908e-09, cumulative = -2.71059e-07
GAMGPCG:  Solving for p_rgh, Initial residual = 0.00208484, Final residual = 1.38575e-07, No Iterations 4
diagonal:  Solving for rho, Initial residual = 0, Final residual = 0, No Iterations 0
time step continuity errors : sum local = 8.20492e-09, global = 9.81939e-11, cumulative = -2.70961e-07
DILUPBiCGStab:  Solving for omega, Initial residual = 9.59956e-05, Final residual = 9.03079e-10, No Iterations 2
DILUPBiCGStab:  Solving for k, Initial residual = 0.00496412, Final residual = 1.72063e-09, No Iterations 3

ExecutionTime = 1.9 s  ClockTime = 2 s

    Overall     = 0.00136955, 0.01
Time = 264

diagonal:  Solving for rho, Initial residual = 0, Final residual = 0, No Iterations 0

Execution time for mesh.update() = 0 s

DILUPBiCGStab:  Solving for Ux, Initial residual = 0.004634, Final residual = 3.47696e-09, No Iterations 3
DILUPBiCGStab:  Solving for Uy, Initial residual = 0.00733773, Final residual = 5.4422e-09, No Iterations 3
DILUPBiCGStab:  Solving for O2, Initial residual = 0.00278818, Final residual = 2.01723e-09, No Iterations 3
DILUPBiCGStab:  Solving for H2O, Initial residual = 0.00278818, Final residual = 2.01724e-09, No Iterations 3
DILUPBiCGStab:  Solving for CH4, Initial residual = 0, Final residual = 0, No Iterations 0
DILUPBiCGStab:  Solving for CO2, Initial residual = 0.00278818, Final residual = 2.01724e-09, No Iterations 3
DILUPBiCGStab:  Solving for h, Initial residual = 0.00314881, Final residual = 1.873e-09, No Iterations 3
min/max(T) = 300, 1044.97
GAMGPCG:  Solving for p_rgh, Initial residual = 0.0188398, Final residual = 5.32194e-07, No Iterations 4
diagonal:  Solving for rho, Initial residual = 0, Final residual = 0, No Iterations 0
time step continuity errors : sum local = 3.14783e-08, global = -2.42144e-09, cumulative = -2.73382e-07
GAMGPCG:  Solving for p_rgh, Initial residual = 0.00217158, Final residual = 7.82004e-07, No Iterations 3
diagonal:  Solving for rho, Initial residual = 0, Final residual = 0, No Iterations 0
time step continuity errors : sum local = 4.50986e-08, global = -1.05399e-09, cumulative = -2.74436e-07
DILUPBiCGStab:  Solving for omega, Initial residual = 9.69538e-05, Final residual = 9.67612e-10, No Iterations 2
DILUPBiCGStab:  Solving for k, Initial residual = 0.00496998, Final residual = 1.55197e-09, No Iterations 3

ExecutionTime = 2.01 s  ClockTime = 2 s

    Overall     = 0.00137465, 0.01
Time = 265

diagonal:  Solving for rho, Initial residual = 0, Final residual = 0, No Iterations 0

Execution time for mesh.update() = 0 s

DILUPBiCGStab:  Solving for Ux, Initial residual = 0.00464113, Final residual = 3.30697e-09, No Iterations 3
DILUPBiCGStab:  Solving for Uy, Initial residual = 0.00731643, Final residual = 5.44388e-09, No Iterations 3
DILUPBiCGStab:  Solving for O2, Initial residual = 0.00279266, Final residual = 2.02129e-09, No Iterations 3
DILUPBiCGStab:  Solving for H2O, Initial residual = 0.00279266, Final residual = 2.02128e-09, No Iterations 3
DILUPBiCGStab:  Solving for CH4, Initial residual = 0, Final residual = 0, No Iterations 0
DILUPBiCGStab:  Solving for CO2, Initial residual = 0.00279266, Final residual = 2.02128e-09, No Iterations 3
DILUPBiCGStab:  Solving for h, Initial residual = 0.00315743, Final residual = 1.97915e-09, No Iterations 3
min/max(T) = 300, 1044.97
GAMGPCG:  Solving for p_rgh, Initial residual = 0.0190313, Final residual = 3.92429e-07, No Iterations 4
diagonal:  Solving for rho, Initial residual = 0, Final residual = 0, No Iterations 0
time step continuity errors : sum local = 2.37057e-08, global = 2.99511e-09, cumulative = -2.71441e-07
GAMGPCG:  Solving for p_rgh, Initial residual = 0.00214718, Final residual = 1.34421e-07, No Iterations 4
diagonal:  Solving for rho, Initial residual = 0, Final residual = 0, No Iterations 0
time step continuity errors : sum local = 8.0175e-09, global = -3.47113e-10, cumulative = -2.71788e-07
DILUPBiCGStab:  Solving for omega, Initial residual = 9.68612e-05, Final residual = 1.00626e-09, No Iterations 2
DILUPBiCGStab:  Solving for k, Initial residual = 0.00498115, Final residual = 1.67252e-09, No Iterations 3

ExecutionTime = 2.12 s  ClockTime = 2 s

    Overall     = 0.00137945, 0.01
Time = 266

diagonal:  Solving for rho, Initial residual = 0, Final residual = 0, No Iterations 0

Execution time for mesh.update() = 0 s

DILUPBiCGStab:  Solving for Ux, Initial residual = 0.00465669, Final residual = 3.32047e-09, No Iterations 3
DILUPBiCGStab:  Solving for Uy, Initial residual = 0.00732219, Final residual = 5.28943e-09, No Iterations 3
DILUPBiCGStab:  Solving for O2, Initial residual = 0.00279053, Final residual = 1.95252e-09, No Iterations 3
DILUPBiCGStab:  Solving for H2O, Initial residual = 0.00279053, Final residual = 1.95252e-09, No Iterations 3
DILUPBiCGStab:  Solving for CH4, Initial residual = 0, Final residual = 0, No Iterations 0
DILUPBiCGStab:  Solving for CO2, Initial residual = 0.00279053, Final residual = 1.95252e-09, No Iterations 3
DILUPBiCGStab:  Solving for h, Initial residual = 0.00315792, Final residual = 1.96026e-09, No Iterations 3
min/max(T) = 300, 1044.97
GAMGPCG:  Solving for p_rgh, Initial residual = 0.0189579, Final residual = 5.49148e-07, No Iterations 4
diagonal:  Solving for rho, Initial residual = 0, Final residual = 0, No Iterations 0
time step continuity errors : sum local = 3.24159e-08, global = -2.78682e-09, cumulative = -2.74575e-07
GAMGPCG:  Solving for p_rgh, Initial residual = 0.00219561, Final residual = 8.69627e-07, No Iterations 3
diagonal:  Solving for rho, Initial residual = 0, Final residual = 0, No Iterations 0
time step continuity errors : sum local = 5.03852e-08, global = -1.34959e-09, cumulative = -2.75925e-07
DILUPBiCGStab:  Solving for omega, Initial residual = 9.59381e-05, Final residual = 1.13538e-09, No Iterations 2
DILUPBiCGStab:  Solving for k, Initial residual = 0.00498936, Final residual = 1.5838e-09, No Iterations 3

ExecutionTime = 2.23 s  ClockTime = 2 s

    Overall     = 0.00138479, 0.01
Time = 267

diagonal:  Solving for rho, Initial residual = 0, Final residual = 0, No Iterations 0

Execution time for mesh.update() = 0 s

DILUPBiCGStab:  Solving for Ux, Initial residual = 0.00463957, Final residual = 3.27933e-09, No Iterations 3
DILUPBiCGStab:  Solving for Uy, Initial residual = 0.00730574, Final residual = 4.72288e-09, No Iterations 3
DILUPBiCGStab:  Solving for O2, Initial residual = 0.00280059, Final residual = 1.74616e-09, No Iterations 3
DILUPBiCGStab:  Solving for H2O, Initial residual = 0.00280059, Final residual = 1.74615e-09, No Iterations 3
DILUPBiCGStab:  Solving for CH4, Initial residual = 0, Final residual = 0, No Iterations 0
DILUPBiCGStab:  Solving for CO2, Initial residual = 0.00280059, Final residual = 1.74615e-09, No Iterations 3
DILUPBiCGStab:  Solving for h, Initial residual = 0.00317078, Final residual = 1.88158e-09, No Iterations 3
min/max(T) = 300, 1044.97
GAMGPCG:  Solving for p_rgh, Initial residual = 0.0189849, Final residual = 3.07093e-07, No Iterations 4
diagonal:  Solving for rho, Initial residual = 0, Final residual = 0, No Iterations 0
time step continuity errors : sum local = 1.81293e-08, global = 1.61257e-09, cumulative = -2.74312e-07
GAMGPCG:  Solving for p_rgh, Initial residual = 0.00217413, Final residual = 1.57578e-07, No Iterations 4
diagonal:  Solving for rho, Initial residual = 0, Final residual = 0, No Iterations 0
time step continuity errors : sum local = 9.2787e-09, global = -6.47085e-10, cumulative = -2.74959e-07
DILUPBiCGStab:  Solving for omega, Initial residual = 9.60204e-05, Final residual = 1.20162e-09, No Iterations 2
DILUPBiCGStab:  Solving for k, Initial residual = 0.00499876, Final residual = 1.71394e-09, No Iterations 3

ExecutionTime = 2.35 s  ClockTime = 2 s

    Overall     = 0.00138937, 0.01
Time = 268

diagonal:  Solving for rho, Initial residual = 0, Final residual = 0, No Iterations 0

Execution time for mesh.update() = 0 s

DILUPBiCGStab:  Solving for Ux, Initial residual = 0.0046581, Final residual = 3.28928e-09, No Iterations 3
DILUPBiCGStab:  Solving for Uy, Initial residual = 0.0072861, Final residual = 4.89025e-09, No Iterations 3
DILUPBiCGStab:  Solving for O2, Initial residual = 0.00279848, Final residual = 1.84069e-09, No Iterations 3
DILUPBiCGStab:  Solving for H2O, Initial residual = 0.00279848, Final residual = 1.84068e-09, No Iterations 3
DILUPBiCGStab:  Solving for CH4, Initial residual = 0, Final residual = 0, No Iterations 0
DILUPBiCGStab:  Solving for CO2, Initial residual = 0.00279848, Final residual = 1.84068e-09, No Iterations 3
DILUPBiCGStab:  Solving for h, Initial residual = 0.00316955, Final residual = 1.97255e-09, No Iterations 3
min/max(T) = 300, 1044.97
GAMGPCG:  Solving for p_rgh, Initial residual = 0.0192307, Final residual = 5.87592e-07, No Iterations 4
diagonal:  Solving for rho, Initial residual = 0, Final residual = 0, No Iterations 0
time step continuity errors : sum local = 3.45435e-08, global = -2.67529e-09, cumulative = -2.77634e-07
GAMGPCG:  Solving for p_rgh, Initial residual = 0.00221474, Final residual = 9.29673e-07, No Iterations 3
diagonal:  Solving for rho, Initial residual = 0, Final residual = 0, No Iterations 0
time step continuity errors : sum local = 5.32141e-08, global = -6.84303e-10, cumulative = -2.78319e-07
DILUPBiCGStab:  Solving for omega, Initial residual = 9.59601e-05, Final residual = 1.26334e-09, No Iterations 2
DILUPBiCGStab:  Solving for k, Initial residual = 0.00501685, Final residual = 1.76364e-09, No Iterations 3

ExecutionTime = 2.46 s  ClockTime = 2 s

    Overall     = 0.0013952, 0.01
Time = 269

diagonal:  Solving for rho, Initial residual = 0, Final residual = 0, No Iterations 0

Execution time for mesh.update() = 0 s

DILUPBiCGStab:  Solving for Ux, Initial residual = 0.00465345, Final residual = 3.23129e-09, No Iterations 3
DILUPBiCGStab:  Solving for Uy, Initial residual = 0.00725139, Final residual = 4.28517e-09, No Iterations 3
DILUPBiCGStab:  Solving for O2, Initial residual = 0.00279539, Final residual = 1.81933e-09, No Iterations 3
DILUPBiCGStab:  Solving for H2O, Initial residual = 0.0027954, Final residual = 1.81932e-09, No Iterations 3
DILUPBiCGStab:  Solving for CH4, Initial residual = 0, Final residual = 0, No Iterations 0
DILUPBiCGStab:  Solving for CO2, Initial residual = 0.0027954, Final residual = 1.81932e-09, No Iterations 3
DILUPBiCGStab:  Solving for h, Initial residual = 0.00317876, Final residual = 1.87632e-09, No Iterations 3
min/max(T) = 300, 1044.97
GAMGPCG:  Solving for p_rgh, Initial residual = 0.0193658, Final residual = 2.96303e-07, No Iterations 4
diagonal:  Solving for rho, Initial residual = 0, Final residual = 0, No Iterations 0
time step continuity errors : sum local = 1.71748e-08, global = -2.33485e-09, cumulative = -2.80654e-07
GAMGPCG:  Solving for p_rgh, Initial residual = 0.00213983, Final residual = 9.91337e-07, No Iterations 3
diagonal:  Solving for rho, Initial residual = 0, Final residual = 0, No Iterations 0
time step continuity errors : sum local = 5.67227e-08, global = -1.85482e-10, cumulative = -2.80839e-07
DILUPBiCGStab:  Solving for omega, Initial residual = 9.59825e-05, Final residual = 1.2231e-09, No Iterations 2
DILUPBiCGStab:  Solving for k, Initial residual = 0.0050413, Final residual = 1.83346e-09, No Iterations 3

ExecutionTime = 2.57 s  ClockTime = 2 s

    Overall     = 0.00139932, 0.01
Time = 270

diagonal:  Solving for rho, Initial residual = 0, Final residual = 0, No Iterations 0

Execution time for mesh.update() = 0 s

DILUPBiCGStab:  Solving for Ux, Initial residual = 0.00467071, Final residual = 3.14777e-09, No Iterations 3
DILUPBiCGStab:  Solving for Uy, Initial residual = 0.00726034, Final residual = 4.33494e-09, No Iterations 3
GAMGPCG:  Solving for G, Initial residual = 0.144123, Final residual = 8.74853e-05, No Iterations 5
DILUPBiCGStab:  Solving for O2, Initial residual = 0.00279425, Final residual = 1.73856e-09, No Iterations 3
DILUPBiCGStab:  Solving for H2O, Initial residual = 0.00279425, Final residual = 1.73855e-09, No Iterations 3
DILUPBiCGStab:  Solving for CH4, Initial residual = 0, Final residual = 0, No Iterations 0
DILUPBiCGStab:  Solving for CO2, Initial residual = 0.00279425, Final residual = 1.73855e-09, No Iterations 3
DILUPBiCGStab:  Solving for h, Initial residual = 0.00317757, Final residual = 1.74639e-09, No Iterations 3
min/max(T) = 300, 1044.97
GAMGPCG:  Solving for p_rgh, Initial residual = 0.019214, Final residual = 5.91892e-07, No Iterations 4
diagonal:  Solving for rho, Initial residual = 0, Final residual = 0, No Iterations 0
time step continuity errors : sum local = 3.44367e-08, global = -2.42737e-10, cumulative = -2.81082e-07
GAMGPCG:  Solving for p_rgh, Initial residual = 0.00226241, Final residual = 1.72188e-07, No Iterations 4
diagonal:  Solving for rho, Initial residual = 0, Final residual = 0, No Iterations 0
time step continuity errors : sum local = 9.71773e-09, global = 7.32118e-10, cumulative = -2.8035e-07
DILUPBiCGStab:  Solving for omega, Initial residual = 9.64164e-05, Final residual = 1.22553e-09, No Iterations 2
DILUPBiCGStab:  Solving for k, Initial residual = 0.00506295, Final residual = 1.78789e-09, No Iterations 3

ExecutionTime = 2.82 s  ClockTime = 3 s

    Overall     = 0.00140495, 0.01
Time = 271

diagonal:  Solving for rho, Initial residual = 0, Final residual = 0, No Iterations 0

Execution time for mesh.update() = 0 s

DILUPBiCGStab:  Solving for Ux, Initial residual = 0.00466381, Final residual = 2.98131e-09, No Iterations 3
DILUPBiCGStab:  Solving for Uy, Initial residual = 0.00723049, Final residual = 4.32494e-09, No Iterations 3
DILUPBiCGStab:  Solving for O2, Initial residual = 0.00279881, Final residual = 1.704e-09, No Iterations 3
DILUPBiCGStab:  Solving for H2O, Initial residual = 0.00279881, Final residual = 1.70399e-09, No Iterations 3
DILUPBiCGStab:  Solving for CH4, Initial residual = 0, Final residual = 0, No Iterations 0
DILUPBiCGStab:  Solving for CO2, Initial residual = 0.00279881, Final residual = 1.70399e-09, No Iterations 3
DILUPBiCGStab:  Solving for h, Initial residual = 0.0031914, Final residual = 1.71792e-09, No Iterations 3
min/max(T) = 300, 1044.97
GAMGPCG:  Solving for p_rgh, Initial residual = 0.0189093, Final residual = 3.4787e-07, No Iterations 4
diagonal:  Solving for rho, Initial residual = 0, Final residual = 0, No Iterations 0
time step continuity errors : sum local = 2.03093e-08, global = -7.13872e-10, cumulative = -2.81064e-07
GAMGPCG:  Solving for p_rgh, Initial residual = 0.00227117, Final residual = 9.51748e-07, No Iterations 3
diagonal:  Solving for rho, Initial residual = 0, Final residual = 0, No Iterations 0
time step continuity errors : sum local = 5.41595e-08, global = -3.16124e-10, cumulative = -2.8138e-07
DILUPBiCGStab:  Solving for omega, Initial residual = 9.60993e-05, Final residual = 1.19136e-09, No Iterations 2
DILUPBiCGStab:  Solving for k, Initial residual = 0.00507702, Final residual = 1.6667e-09, No Iterations 3

ExecutionTime = 2.94 s  ClockTime = 3 s

    Overall     = 0.00140911, 0.01
Time = 272

diagonal:  Solving for rho, Initial residual = 0, Final residual = 0, No Iterations 0

Execution time for mesh.update() = 0 s

DILUPBiCGStab:  Solving for Ux, Initial residual = 0.00467071, Final residual = 2.92623e-09, No Iterations 3
DILUPBiCGStab:  Solving for Uy, Initial residual = 0.00719446, Final residual = 4.5389e-09, No Iterations 3
DILUPBiCGStab:  Solving for O2, Initial residual = 0.00279409, Final residual = 2.41481e-09, No Iterations 3
DILUPBiCGStab:  Solving for H2O, Initial residual = 0.0027941, Final residual = 2.41483e-09, No Iterations 3
DILUPBiCGStab:  Solving for CH4, Initial residual = 0, Final residual = 0, No Iterations 0
DILUPBiCGStab:  Solving for CO2, Initial residual = 0.00279411, Final residual = 2.41483e-09, No Iterations 3
DILUPBiCGStab:  Solving for h, Initial residual = 0.00319523, Final residual = 1.75202e-09, No Iterations 3
min/max(T) = 300, 1044.97
GAMGPCG:  Solving for p_rgh, Initial residual = 0.0190396, Final residual = 6.32207e-07, No Iterations 4
diagonal:  Solving for rho, Initial residual = 0, Final residual = 0, No Iterations 0
time step continuity errors : sum local = 3.69952e-08, global = 7.93812e-10, cumulative = -2.80586e-07
GAMGPCG:  Solving for p_rgh, Initial residual = 0.00218308, Final residual = 1.45537e-07, No Iterations 4
diagonal:  Solving for rho, Initial residual = 0, Final residual = 0, No Iterations 0
time step continuity errors : sum local = 8.28192e-09, global = 7.086e-10, cumulative = -2.79877e-07
DILUPBiCGStab:  Solving for omega, Initial residual = 9.55331e-05, Final residual = 1.14009e-09, No Iterations 2
DILUPBiCGStab:  Solving for k, Initial residual = 0.00509662, Final residual = 1.61602e-09, No Iterations 3

ExecutionTime = 3.05 s  ClockTime = 3 s

    Overall     = 0.00141507, 0.01
Time = 273

diagonal:  Solving for rho, Initial residual = 0, Final residual = 0, No Iterations 0

Execution time for mesh.update() = 0 s

DILUPBiCGStab:  Solving for Ux, Initial residual = 0.00467849, Final residual = 2.87638e-09, No Iterations 3
DILUPBiCGStab:  Solving for Uy, Initial residual = 0.00715316, Final residual = 4.42664e-09, No Iterations 3
DILUPBiCGStab:  Solving for O2, Initial residual = 0.00280123, Final residual = 1.25118e-09, No Iterations 3
DILUPBiCGStab:  Solving for H2O, Initial residual = 0.00280124, Final residual = 1.25117e-09, No Iterations 3
DILUPBiCGStab:  Solving for CH4, Initial residual = 0, Final residual = 0, No Iterations 0
DILUPBiCGStab:  Solving for CO2, Initial residual = 0.00280124, Final residual = 1.25117e-09, No Iterations 3
DILUPBiCGStab:  Solving for h, Initial residual = 0.00320475, Final residual = 1.30798e-09, No Iterations 3
min/max(T) = 300, 1044.97
GAMGPCG:  Solving for p_rgh, Initial residual = 0.0196215, Final residual = 4.01086e-07, No Iterations 4
diagonal:  Solving for rho, Initial residual = 0, Final residual = 0, No Iterations 0
time step continuity errors : sum local = 2.32547e-08, global = 5.74365e-10, cumulative = -2.79303e-07
GAMGPCG:  Solving for p_rgh, Initial residual = 0.00220948, Final residual = 9.85216e-07, No Iterations 3
diagonal:  Solving for rho, Initial residual = 0, Final residual = 0, No Iterations 0
time step continuity errors : sum local = 5.63863e-08, global = 4.51634e-10, cumulative = -2.78851e-07
DILUPBiCGStab:  Solving for omega, Initial residual = 9.53313e-05, Final residual = 9.5724e-10, No Iterations 2
DILUPBiCGStab:  Solving for k, Initial residual = 0.00511669, Final residual = 1.50799e-09, No Iterations 3

ExecutionTime = 3.17 s  ClockTime = 3 s

    Overall     = 0.00141916, 0.01
Time = 274

diagonal:  Solving for rho, Initial residual = 0, Final residual = 0, No Iterations 0

Execution time for mesh.update() = 0 s

DILUPBiCGStab:  Solving for Ux, Initial residual = 0.00468145, Final residual = 2.52664e-09, No Iterations 3
DILUPBiCGStab:  Solving for Uy, Initial residual = 0.00715253, Final residual = 4.31273e-09, No Iterations 3
DILUPBiCGStab:  Solving for O2, Initial residual = 0.00280183, Final residual = 1.22771e-09, No Iterations 3
DILUPBiCGStab:  Solving for H2O, Initial residual = 0.00280185, Final residual = 1.22771e-09, No Iterations 3
DILUPBiCGStab:  Solving for CH4, Initial residual = 0, Final residual = 0, No Iterations 0
DILUPBiCGStab:  Solving for CO2, Initial residual = 0.00280185, Final residual = 1.22771e-09, No Iterations 3
DILUPBiCGStab:  Solving for h, Initial residual = 0.00320968, Final residual = 1.11736e-09, No Iterations 3
min/max(T) = 300, 1044.97
GAMGPCG:  Solving for p_rgh, Initial residual = 0.019505, Final residual = 6.16874e-07, No Iterations 4
diagonal:  Solving for rho, Initial residual = 0, Final residual = 0, No Iterations 0
time step continuity errors : sum local = 3.59123e-08, global = 1.37554e-09, cumulative = -2.77476e-07
GAMGPCG:  Solving for p_rgh, Initial residual = 0.00215311, Final residual = 9.45958e-07, No Iterations 3
diagonal:  Solving for rho, Initial residual = 0, Final residual = 0, No Iterations 0
time step continuity errors : sum local = 5.39559e-08, global = -1.0508e-09, cumulative = -2.78526e-07
DILUPBiCGStab:  Solving for omega, Initial residual = 9.60812e-05, Final residual = 8.71171e-10, No Iterations 2
DILUPBiCGStab:  Solving for k, Initial residual = 0.00513114, Final residual = 2.55069e-09, No Iterations 3

ExecutionTime = 3.28 s  ClockTime = 3 s

    Overall     = 0.00142559, 0.01
Time = 275

diagonal:  Solving for rho, Initial residual = 0, Final residual = 0, No Iterations 0

Execution time for mesh.update() = 0 s

DILUPBiCGStab:  Solving for Ux, Initial residual = 0.00469818, Final residual = 2.25923e-09, No Iterations 3
DILUPBiCGStab:  Solving for Uy, Initial residual = 0.00711987, Final residual = 4.02389e-09, No Iterations 3
DILUPBiCGStab:  Solving for O2, Initial residual = 0.00279298, Final residual = 1.19398e-09, No Iterations 3
DILUPBiCGStab:  Solving for H2O, Initial residual = 0.002793, Final residual = 1.19398e-09, No Iterations 3
DILUPBiCGStab:  Solving for CH4, Initial residual = 0, Final residual = 0, No Iterations 0
DILUPBiCGStab:  Solving for CO2, Initial residual = 0.002793, Final residual = 1.19398e-09, No Iterations 3
DILUPBiCGStab:  Solving for h, Initial residual = 0.0032095, Final residual = 1.08502e-09, No Iterations 3
min/max(T) = 300, 1044.97
GAMGPCG:  Solving for p_rgh, Initial residual = 0.0201856, Final residual = 4.27423e-07, No Iterations 4
diagonal:  Solving for rho, Initial residual = 0, Final residual = 0, No Iterations 0
time step continuity errors : sum local = 2.47703e-08, global = 6.40269e-10, cumulative = -2.77886e-07
GAMGPCG:  Solving for p_rgh, Initial residual = 0.00223555, Final residual = 9.83485e-07, No Iterations 3
diagonal:  Solving for rho, Initial residual = 0, Final residual = 0, No Iterations 0
time step continuity errors : sum local = 5.59943e-08, global = 1.13973e-09, cumulative = -2.76746e-07
DILUPBiCGStab:  Solving for omega, Initial residual = 9.50206e-05, Final residual = 8.03446e-10, No Iterations 2
DILUPBiCGStab:  Solving for k, Initial residual = 0.00515729, Final residual = 8.54652e-09, No Iterations 3

ExecutionTime = 3.39 s  ClockTime = 3 s

    Overall     = 0.00142992, 0.01
Time = 276

diagonal:  Solving for rho, Initial residual = 0, Final residual = 0, No Iterations 0

Execution time for mesh.update() = 0 s

DILUPBiCGStab:  Solving for Ux, Initial residual = 0.00469629, Final residual = 2.32292e-09, No Iterations 3
DILUPBiCGStab:  Solving for Uy, Initial residual = 0.00710771, Final residual = 4.322e-09, No Iterations 3
DILUPBiCGStab:  Solving for O2, Initial residual = 0.00279486, Final residual = 1.15259e-09, No Iterations 3
DILUPBiCGStab:  Solving for H2O, Initial residual = 0.00279488, Final residual = 1.15258e-09, No Iterations 3
DILUPBiCGStab:  Solving for CH4, Initial residual = 0, Final residual = 0, No Iterations 0
DILUPBiCGStab:  Solving for CO2, Initial residual = 0.00279489, Final residual = 1.15258e-09, No Iterations 3
DILUPBiCGStab:  Solving for h, Initial residual = 0.00321547, Final residual = 1.15647e-09, No Iterations 3
min/max(T) = 300, 1044.97
GAMGPCG:  Solving for p_rgh, Initial residual = 0.019904, Final residual = 6.97584e-07, No Iterations 4
diagonal:  Solving for rho, Initial residual = 0, Final residual = 0, No Iterations 0
time step continuity errors : sum local = 4.05937e-08, global = 1.04008e-09, cumulative = -2.75706e-07
GAMGPCG:  Solving for p_rgh, Initial residual = 0.00226794, Final residual = 9.44232e-07, No Iterations 3
diagonal:  Solving for rho, Initial residual = 0, Final residual = 0, No Iterations 0
time step continuity errors : sum local = 5.36794e-08, global = -1.04552e-09, cumulative = -2.76752e-07
DILUPBiCGStab:  Solving for omega, Initial residual = 9.47869e-05, Final residual = 8.16526e-10, No Iterations 2
DILUPBiCGStab:  Solving for k, Initial residual = 0.00518196, Final residual = 5.93983e-09, No Iterations 3

ExecutionTime = 3.51 s  ClockTime = 3 s

    Overall     = 0.00143686, 0.01
Time = 277

diagonal:  Solving for rho, Initial residual = 0, Final residual = 0, No Iterations 0

Execution time for mesh.update() = 0 s

DILUPBiCGStab:  Solving for Ux, Initial residual = 0.0047147, Final residual = 2.15517e-09, No Iterations 3
DILUPBiCGStab:  Solving for Uy, Initial residual = 0.00707598, Final residual = 3.98626e-09, No Iterations 3
DILUPBiCGStab:  Solving for O2, Initial residual = 0.0027896, Final residual = 1.1439e-09, No Iterations 3
DILUPBiCGStab:  Solving for H2O, Initial residual = 0.00278963, Final residual = 1.1439e-09, No Iterations 3
DILUPBiCGStab:  Solving for CH4, Initial residual = 0, Final residual = 0, No Iterations 0
DILUPBiCGStab:  Solving for CO2, Initial residual = 0.00278963, Final residual = 1.1439e-09, No Iterations 3
DILUPBiCGStab:  Solving for h, Initial residual = 0.00321403, Final residual = 1.05188e-09, No Iterations 3
min/max(T) = 300, 1044.97
GAMGPCG:  Solving for p_rgh, Initial residual = 0.0203625, Final residual = 4.7112e-07, No Iterations 4
diagonal:  Solving for rho, Initial residual = 0, Final residual = 0, No Iterations 0
time step continuity errors : sum local = 2.7392e-08, global = -8.75397e-10, cumulative = -2.77627e-07
GAMGPCG:  Solving for p_rgh, Initial residual = 0.00227702, Final residual = 9.96821e-07, No Iterations 3
diagonal:  Solving for rho, Initial residual = 0, Final residual = 0, No Iterations 0
time step continuity errors : sum local = 5.69821e-08, global = 4.44425e-10, cumulative = -2.77183e-07
DILUPBiCGStab:  Solving for omega, Initial residual = 9.60865e-05, Final residual = 7.47951e-10, No Iterations 2
DILUPBiCGStab:  Solving for k, Initial residual = 0.0052035, Final residual = 1.05761e-09, No Iterations 3

ExecutionTime = 3.63 s  ClockTime = 3 s

    Overall     = 0.00144165, 0.01
Time = 278

diagonal:  Solving for rho, Initial residual = 0, Final residual = 0, No Iterations 0

Execution time for mesh.update() = 0 s

DILUPBiCGStab:  Solving for Ux, Initial residual = 0.00471366, Final residual = 2.21532e-09, No Iterations 3
DILUPBiCGStab:  Solving for Uy, Initial residual = 0.00707276, Final residual = 3.73148e-09, No Iterations 3
DILUPBiCGStab:  Solving for O2, Initial residual = 0.00279303, Final residual = 1.33888e-09, No Iterations 3
DILUPBiCGStab:  Solving for H2O, Initial residual = 0.00279306, Final residual = 1.33888e-09, No Iterations 3
DILUPBiCGStab:  Solving for CH4, Initial residual = 0, Final residual = 0, No Iterations 0
DILUPBiCGStab:  Solving for CO2, Initial residual = 0.00279306, Final residual = 1.33888e-09, No Iterations 3
DILUPBiCGStab:  Solving for h, Initial residual = 0.00321901, Final residual = 1.14255e-09, No Iterations 3
min/max(T) = 300, 1044.97
GAMGPCG:  Solving for p_rgh, Initial residual = 0.0202863, Final residual = 6.48756e-07, No Iterations 4
diagonal:  Solving for rho, Initial residual = 0, Final residual = 0, No Iterations 0
time step continuity errors : sum local = 3.76648e-08, global = -1.59897e-09, cumulative = -2.78782e-07
GAMGPCG:  Solving for p_rgh, Initial residual = 0.00225374, Final residual = 1.66141e-07, No Iterations 4
diagonal:  Solving for rho, Initial residual = 0, Final residual = 0, No Iterations 0
time step continuity errors : sum local = 9.38519e-09, global = -9.50848e-11, cumulative = -2.78877e-07
DILUPBiCGStab:  Solving for omega, Initial residual = 9.52235e-05, Final residual = 7.8256e-10, No Iterations 2
DILUPBiCGStab:  Solving for k, Initial residual = 0.00522909, Final residual = 1.19147e-09, No Iterations 3

ExecutionTime = 3.74 s  ClockTime = 3 s

    Overall     = 0.00144938, 0.01
Time = 279

diagonal:  Solving for rho, Initial residual = 0, Final residual = 0, No Iterations 0

Execution time for mesh.update() = 0 s

DILUPBiCGStab:  Solving for Ux, Initial residual = 0.0047284, Final residual = 2.14303e-09, No Iterations 3
DILUPBiCGStab:  Solving for Uy, Initial residual = 0.00704397, Final residual = 3.6369e-09, No Iterations 3
DILUPBiCGStab:  Solving for O2, Initial residual = 0.00279155, Final residual = 1.45072e-09, No Iterations 3
DILUPBiCGStab:  Solving for H2O, Initial residual = 0.00279157, Final residual = 1.45072e-09, No Iterations 3
DILUPBiCGStab:  Solving for CH4, Initial residual = 0, Final residual = 0, No Iterations 0
DILUPBiCGStab:  Solving for CO2, Initial residual = 0.00279157, Final residual = 1.45072e-09, No Iterations 3
DILUPBiCGStab:  Solving for h, Initial residual = 0.00322672, Final residual = 1.28106e-09, No Iterations 3
min/max(T) = 300, 1044.97
GAMGPCG:  Solving for p_rgh, Initial residual = 0.0205387, Final residual = 4.22156e-07, No Iterations 4
diagonal:  Solving for rho, Initial residual = 0, Final residual = 0, No Iterations 0
time step continuity errors : sum local = 2.45394e-08, global = -2.41149e-09, cumulative = -2.81288e-07
GAMGPCG:  Solving for p_rgh, Initial residual = 0.00231078, Final residual = 1.62306e-07, No Iterations 4
diagonal:  Solving for rho, Initial residual = 0, Final residual = 0, No Iterations 0
time step continuity errors : sum local = 9.13015e-09, global = 1.36439e-10, cumulative = -2.81152e-07
DILUPBiCGStab:  Solving for omega, Initial residual = 9.48164e-05, Final residual = 8.4388e-10, No Iterations 2
DILUPBiCGStab:  Solving for k, Initial residual = 0.00525344, Final residual = 1.25145e-09, No Iterations 3

ExecutionTime = 3.86 s  ClockTime = 4 s

    Overall     = 0.00145546, 0.01
Time = 280

diagonal:  Solving for rho, Initial residual = 0, Final residual = 0, No Iterations 0

Execution time for mesh.update() = 0 s

DILUPBiCGStab:  Solving for Ux, Initial residual = 0.00473571, Final residual = 2.27999e-09, No Iterations 3
DILUPBiCGStab:  Solving for Uy, Initial residual = 0.00702622, Final residual = 3.67665e-09, No Iterations 3
GAMGPCG:  Solving for G, Initial residual = 0.172238, Final residual = 2.56122e-05, No Iterations 6
DILUPBiCGStab:  Solving for O2, Initial residual = 0.00278544, Final residual = 1.60904e-09, No Iterations 3
DILUPBiCGStab:  Solving for H2O, Initial residual = 0.00278547, Final residual = 1.60904e-09, No Iterations 3
DILUPBiCGStab:  Solving for CH4, Initial residual = 0, Final residual = 0, No Iterations 0
DILUPBiCGStab:  Solving for CO2, Initial residual = 0.00278547, Final residual = 1.60904e-09, No Iterations 3
DILUPBiCGStab:  Solving for h, Initial residual = 0.00322561, Final residual = 1.45192e-09, No Iterations 3
min/max(T) = 300, 1044.97
GAMGPCG:  Solving for p_rgh, Initial residual = 0.0202845, Final residual = 6.39352e-07, No Iterations 4
diagonal:  Solving for rho, Initial residual = 0, Final residual = 0, No Iterations 0
time step continuity errors : sum local = 3.72429e-08, global = -8.37215e-10, cumulative = -2.81989e-07
GAMGPCG:  Solving for p_rgh, Initial residual = 0.00226626, Final residual = 9.27642e-07, No Iterations 3
diagonal:  Solving for rho, Initial residual = 0, Final residual = 0, No Iterations 0
time step continuity errors : sum local = 5.22332e-08, global = -7.97563e-10, cumulative = -2.82787e-07
DILUPBiCGStab:  Solving for omega, Initial residual = 9.55829e-05, Final residual = 9.63592e-10, No Iterations 2
DILUPBiCGStab:  Solving for k, Initial residual = 0.00528026, Final residual = 1.32431e-09, No Iterations 3

ExecutionTime = 4.11 s  ClockTime = 4 s

    Overall     = 0.00146502, 0.01
Time = 281

diagonal:  Solving for rho, Initial residual = 0, Final residual = 0, No Iterations 0

Execution time for mesh.update() = 0 s

DILUPBiCGStab:  Solving for Ux, Initial residual = 0.00476351, Final residual = 2.17087e-09, No Iterations 3
DILUPBiCGStab:  Solving for Uy, Initial residual = 0.00700598, Final residual = 3.35166e-09, No Iterations 3
DILUPBiCGStab:  Solving for O2, Initial residual = 0.00278898, Final residual = 1.73696e-09, No Iterations 3
DILUPBiCGStab:  Solving for H2O, Initial residual = 0.00278901, Final residual = 1.73695e-09, No Iterations 3
DILUPBiCGStab:  Solving for CH4, Initial residual = 0, Final residual = 0, No Iterations 0
DILUPBiCGStab:  Solving for CO2, Initial residual = 0.00278901, Final residual = 1.73695e-09, No Iterations 3
DILUPBiCGStab:  Solving for h, Initial residual = 0.00323953, Final residual = 1.51701e-09, No Iterations 3
min/max(T) = 300, 1044.97
GAMGPCG:  Solving for p_rgh, Initial residual = 0.0209475, Final residual = 4.29485e-07, No Iterations 4
diagonal:  Solving for rho, Initial residual = 0, Final residual = 0, No Iterations 0
time step continuity errors : sum local = 2.51419e-08, global = -1.74495e-09, cumulative = -2.84532e-07
GAMGPCG:  Solving for p_rgh, Initial residual = 0.00237745, Final residual = 9.15395e-07, No Iterations 3
diagonal:  Solving for rho, Initial residual = 0, Final residual = 0, No Iterations 0
time step continuity errors : sum local = 5.20966e-08, global = -1.0347e-09, cumulative = -2.85566e-07
DILUPBiCGStab:  Solving for omega, Initial residual = 9.56225e-05, Final residual = 1.00674e-09, No Iterations 2
DILUPBiCGStab:  Solving for k, Initial residual = 0.00531077, Final residual = 1.34073e-09, No Iterations 3

ExecutionTime = 4.23 s  ClockTime = 4 s

    Overall     = 0.00147245, 0.01
Time = 282

diagonal:  Solving for rho, Initial residual = 0, Final residual = 0, No Iterations 0

Execution time for mesh.update() = 0 s

DILUPBiCGStab:  Solving for Ux, Initial residual = 0.00477631, Final residual = 2.17786e-09, No Iterations 3
DILUPBiCGStab:  Solving for Uy, Initial residual = 0.00700111, Final residual = 3.12896e-09, No Iterations 3
DILUPBiCGStab:  Solving for O2, Initial residual = 0.00278309, Final residual = 1.94131e-09, No Iterations 3
DILUPBiCGStab:  Solving for H2O, Initial residual = 0.00278312, Final residual = 1.94131e-09, No Iterations 3
DILUPBiCGStab:  Solving for CH4, Initial residual = 0, Final residual = 0, No Iterations 0
DILUPBiCGStab:  Solving for CO2, Initial residual = 0.00278312, Final residual = 1.94131e-09, No Iterations 3
DILUPBiCGStab:  Solving for h, Initial residual = 0.00323092, Final residual = 1.59128e-09, No Iterations 3
min/max(T) = 300, 1044.97
GAMGPCG:  Solving for p_rgh, Initial residual = 0.0204922, Final residual = 7.52427e-07, No Iterations 4
diagonal:  Solving for rho, Initial residual = 0, Final residual = 0, No Iterations 0
time step continuity errors : sum local = 4.39087e-08, global = -3.1421e-09, cumulative = -2.88709e-07
GAMGPCG:  Solving for p_rgh, Initial residual = 0.00229781, Final residual = 8.39615e-07, No Iterations 3
diagonal:  Solving for rho, Initial residual = 0, Final residual = 0, No Iterations 0
time step continuity errors : sum local = 4.79435e-08, global = -1.96953e-09, cumulative = -2.90678e-07
DILUPBiCGStab:  Solving for omega, Initial residual = 9.56141e-05, Final residual = 1.02742e-09, No Iterations 2
DILUPBiCGStab:  Solving for k, Initial residual = 0.00533598, Final residual = 1.47598e-09, No Iterations 3

ExecutionTime = 4.34 s  ClockTime = 4 s

    Overall     = 0.00148442, 0.01
Time = 283

diagonal:  Solving for rho, Initial residual = 0, Final residual = 0, No Iterations 0

Execution time for mesh.update() = 0 s

DILUPBiCGStab:  Solving for Ux, Initial residual = 0.00478472, Final residual = 2.22449e-09, No Iterations 3
DILUPBiCGStab:  Solving for Uy, Initial residual = 0.00695856, Final residual = 3.23843e-09, No Iterations 3
DILUPBiCGStab:  Solving for O2, Initial residual = 0.00278409, Final residual = 1.99839e-09, No Iterations 3
DILUPBiCGStab:  Solving for H2O, Initial residual = 0.00278412, Final residual = 1.99839e-09, No Iterations 3
DILUPBiCGStab:  Solving for CH4, Initial residual = 0, Final residual = 0, No Iterations 0
DILUPBiCGStab:  Solving for CO2, Initial residual = 0.00278412, Final residual = 1.99839e-09, No Iterations 3
DILUPBiCGStab:  Solving for h, Initial residual = 0.00324394, Final residual = 1.6781e-09, No Iterations 3
min/max(T) = 300, 1044.97
GAMGPCG:  Solving for p_rgh, Initial residual = 0.0212395, Final residual = 6.4739e-07, No Iterations 4
diagonal:  Solving for rho, Initial residual = 0, Final residual = 0, No Iterations 0
time step continuity errors : sum local = 3.81016e-08, global = -2.74189e-09, cumulative = -2.9342e-07
GAMGPCG:  Solving for p_rgh, Initial residual = 0.0024014, Final residual = 8.25803e-07, No Iterations 3
diagonal:  Solving for rho, Initial residual = 0, Final residual = 0, No Iterations 0
time step continuity errors : sum local = 4.73344e-08, global = -1.75895e-09, cumulative = -2.95179e-07
DILUPBiCGStab:  Solving for omega, Initial residual = 9.66663e-05, Final residual = 1.03049e-09, No Iterations 2
DILUPBiCGStab:  Solving for k, Initial residual = 0.00536034, Final residual = 1.50822e-09, No Iterations 3

ExecutionTime = 4.45 s  ClockTime = 4 s

    Overall     = 0.00149314, 0.01
Time = 284

diagonal:  Solving for rho, Initial residual = 0, Final residual = 0, No Iterations 0

Execution time for mesh.update() = 0 s

DILUPBiCGStab:  Solving for Ux, Initial residual = 0.00481343, Final residual = 2.1232e-09, No Iterations 3
DILUPBiCGStab:  Solving for Uy, Initial residual = 0.00697323, Final residual = 3.31902e-09, No Iterations 3
DILUPBiCGStab:  Solving for O2, Initial residual = 0.00277907, Final residual = 1.84431e-09, No Iterations 3
DILUPBiCGStab:  Solving for H2O, Initial residual = 0.00277909, Final residual = 1.84431e-09, No Iterations 3
DILUPBiCGStab:  Solving for CH4, Initial residual = 0, Final residual = 0, No Iterations 0
DILUPBiCGStab:  Solving for CO2, Initial residual = 0.00277909, Final residual = 1.84431e-09, No Iterations 3
DILUPBiCGStab:  Solving for h, Initial residual = 0.00323896, Final residual = 1.64784e-09, No Iterations 3
min/max(T) = 300, 1044.97
GAMGPCG:  Solving for p_rgh, Initial residual = 0.0218474, Final residual = 7.27739e-07, No Iterations 4
diagonal:  Solving for rho, Initial residual = 0, Final residual = 0, No Iterations 0
time step continuity errors : sum local = 4.27708e-08, global = -2.32948e-09, cumulative = -2.97508e-07
GAMGPCG:  Solving for p_rgh, Initial residual = 0.0024173, Final residual = 7.88996e-07, No Iterations 3
diagonal:  Solving for rho, Initial residual = 0, Final residual = 0, No Iterations 0
time step continuity errors : sum local = 4.52592e-08, global = -1.12138e-09, cumulative = -2.9863e-07
DILUPBiCGStab:  Solving for omega, Initial residual = 9.66846e-05, Final residual = 1.02518e-09, No Iterations 2
DILUPBiCGStab:  Solving for k, Initial residual = 0.0053889, Final residual = 1.60154e-09, No Iterations 3

ExecutionTime = 4.56 s  ClockTime = 4 s

    Overall     = 0.00150624, 0.01
Time = 285

diagonal:  Solving for rho, Initial residual = 0, Final residual = 0, No Iterations 0

Execution time for mesh.update() = 0 s

DILUPBiCGStab:  Solving for Ux, Initial residual = 0.00481253, Final residual = 2.28335e-09, No Iterations 3
DILUPBiCGStab:  Solving for Uy, Initial residual = 0.00695304, Final residual = 3.72381e-09, No Iterations 3
DILUPBiCGStab:  Solving for O2, Initial residual = 0.00277236, Final residual = 2.0837e-09, No Iterations 3
DILUPBiCGStab:  Solving for H2O, Initial residual = 0.00277238, Final residual = 2.08369e-09, No Iterations 3
DILUPBiCGStab:  Solving for CH4, Initial residual = 0, Final residual = 0, No Iterations 0
DILUPBiCGStab:  Solving for CO2, Initial residual = 0.00277238, Final residual = 2.08369e-09, No Iterations 3
DILUPBiCGStab:  Solving for h, Initial residual = 0.00323919, Final residual = 1.7493e-09, No Iterations 3
min/max(T) = 300, 1044.97
GAMGPCG:  Solving for p_rgh, Initial residual = 0.0222447, Final residual = 5.99455e-07, No Iterations 4
diagonal:  Solving for rho, Initial residual = 0, Final residual = 0, No Iterations 0
time step continuity errors : sum local = 3.46038e-08, global = -3.52774e-09, cumulative = -3.02158e-07
GAMGPCG:  Solving for p_rgh, Initial residual = 0.00245254, Final residual = 9.5808e-07, No Iterations 3
diagonal:  Solving for rho, Initial residual = 0, Final residual = 0, No Iterations 0
time step continuity errors : sum local = 5.488e-08, global = 5.87455e-10, cumulative = -3.0157e-07
DILUPBiCGStab:  Solving for omega, Initial residual = 9.59774e-05, Final residual = 9.99671e-10, No Iterations 2
DILUPBiCGStab:  Solving for k, Initial residual = 0.00542512, Final residual = 1.59816e-09, No Iterations 3

ExecutionTime = 4.68 s  ClockTime = 4 s

    Overall     = 0.00151355, 0.01
Time = 286

diagonal:  Solving for rho, Initial residual = 0, Final residual = 0, No Iterations 0

Execution time for mesh.update() = 0 s

DILUPBiCGStab:  Solving for Ux, Initial residual = 0.00484239, Final residual = 2.15261e-09, No Iterations 3
DILUPBiCGStab:  Solving for Uy, Initial residual = 0.00696091, Final residual = 3.73242e-09, No Iterations 3
DILUPBiCGStab:  Solving for O2, Initial residual = 0.0027637, Final residual = 1.68978e-09, No Iterations 3
DILUPBiCGStab:  Solving for H2O, Initial residual = 0.00276371, Final residual = 1.68977e-09, No Iterations 3
DILUPBiCGStab:  Solving for CH4, Initial residual = 0, Final residual = 0, No Iterations 0
DILUPBiCGStab:  Solving for CO2, Initial residual = 0.00276371, Final residual = 1.68978e-09, No Iterations 3
DILUPBiCGStab:  Solving for h, Initial residual = 0.00322909, Final residual = 1.58391e-09, No Iterations 3
min/max(T) = 300, 1044.97
GAMGPCG:  Solving for p_rgh, Initial residual = 0.0220257, Final residual = 6.62072e-07, No Iterations 4
diagonal:  Solving for rho, Initial residual = 0, Final residual = 0, No Iterations 0
time step continuity errors : sum local = 3.88522e-08, global = -1.63963e-09, cumulative = -3.0321e-07
GAMGPCG:  Solving for p_rgh, Initial residual = 0.00245147, Final residual = 8.72633e-07, No Iterations 3
diagonal:  Solving for rho, Initial residual = 0, Final residual = 0, No Iterations 0
time step continuity errors : sum local = 5.03251e-08, global = 6.61246e-10, cumulative = -3.02548e-07
DILUPBiCGStab:  Solving for omega, Initial residual = 9.58986e-05, Final residual = 9.83246e-10, No Iterations 2
DILUPBiCGStab:  Solving for k, Initial residual = 0.00546083, Final residual = 1.57897e-09, No Iterations 3

ExecutionTime = 4.79 s  ClockTime = 4 s

    Overall     = 0.00152816, 0.01
Time = 287

diagonal:  Solving for rho, Initial residual = 0, Final residual = 0, No Iterations 0

Execution time for mesh.update() = 0 s

DILUPBiCGStab:  Solving for Ux, Initial residual = 0.00482951, Final residual = 2.04946e-09, No Iterations 3
DILUPBiCGStab:  Solving for Uy, Initial residual = 0.00695376, Final residual = 3.84828e-09, No Iterations 3
DILUPBiCGStab:  Solving for O2, Initial residual = 0.0027582, Final residual = 1.51301e-09, No Iterations 3
DILUPBiCGStab:  Solving for H2O, Initial residual = 0.0027582, Final residual = 1.51301e-09, No Iterations 3
DILUPBiCGStab:  Solving for CH4, Initial residual = 0, Final residual = 0, No Iterations 0
DILUPBiCGStab:  Solving for CO2, Initial residual = 0.0027582, Final residual = 1.51301e-09, No Iterations 3
DILUPBiCGStab:  Solving for h, Initial residual = 0.00323102, Final residual = 1.54695e-09, No Iterations 3
min/max(T) = 300, 1044.97
GAMGPCG:  Solving for p_rgh, Initial residual = 0.0224438, Final residual = 6.29704e-07, No Iterations 4
diagonal:  Solving for rho, Initial residual = 0, Final residual = 0, No Iterations 0
time step continuity errors : sum local = 3.62019e-08, global = -3.06409e-09, cumulative = -3.05613e-07
GAMGPCG:  Solving for p_rgh, Initial residual = 0.00251053, Final residual = 9.80362e-07, No Iterations 3
diagonal:  Solving for rho, Initial residual = 0, Final residual = 0, No Iterations 0
time step continuity errors : sum local = 5.56626e-08, global = 5.92394e-10, cumulative = -3.0502e-07
DILUPBiCGStab:  Solving for omega, Initial residual = 9.58559e-05, Final residual = 9.49059e-10, No Iterations 2
DILUPBiCGStab:  Solving for k, Initial residual = 0.00548863, Final residual = 1.52446e-09, No Iterations 3

ExecutionTime = 4.9 s  ClockTime = 5 s

    Overall     = 0.00153746, 0.01
Time = 288

diagonal:  Solving for rho, Initial residual = 0, Final residual = 0, No Iterations 0

Execution time for mesh.update() = 0 s

DILUPBiCGStab:  Solving for Ux, Initial residual = 0.00486333, Final residual = 2.19585e-09, No Iterations 3
DILUPBiCGStab:  Solving for Uy, Initial residual = 0.00695036, Final residual = 3.91378e-09, No Iterations 3
DILUPBiCGStab:  Solving for O2, Initial residual = 0.0027491, Final residual = 1.30633e-09, No Iterations 3
DILUPBiCGStab:  Solving for H2O, Initial residual = 0.00274911, Final residual = 1.30632e-09, No Iterations 3
DILUPBiCGStab:  Solving for CH4, Initial residual = 0, Final residual = 0, No Iterations 0
DILUPBiCGStab:  Solving for CO2, Initial residual = 0.00274911, Final residual = 1.30632e-09, No Iterations 3
DILUPBiCGStab:  Solving for h, Initial residual = 0.0032225, Final residual = 1.19601e-09, No Iterations 3
min/max(T) = 299.995, 1044.97
GAMGPCG:  Solving for p_rgh, Initial residual = 0.0229397, Final residual = 6.85055e-07, No Iterations 4
diagonal:  Solving for rho, Initial residual = 0, Final residual = 0, No Iterations 0
time step continuity errors : sum local = 3.93849e-08, global = -3.47319e-09, cumulative = -3.08493e-07
GAMGPCG:  Solving for p_rgh, Initial residual = 0.00253518, Final residual = 8.4822e-07, No Iterations 3
diagonal:  Solving for rho, Initial residual = 0, Final residual = 0, No Iterations 0
time step continuity errors : sum local = 4.86389e-08, global = -1.42331e-09, cumulative = -3.09917e-07
DILUPBiCGStab:  Solving for omega, Initial residual = 9.56558e-05, Final residual = 8.85651e-10, No Iterations 2
DILUPBiCGStab:  Solving for k, Initial residual = 0.00551709, Final residual = 1.55062e-09, No Iterations 3

ExecutionTime = 5.02 s  ClockTime = 5 s

    Overall     = 0.00155391, 0.01
Time = 289

diagonal:  Solving for rho, Initial residual = 0, Final residual = 0, No Iterations 0

Execution time for mesh.update() = 0 s

DILUPBiCGStab:  Solving for Ux, Initial residual = 0.00488861, Final residual = 2.13159e-09, No Iterations 3
DILUPBiCGStab:  Solving for Uy, Initial residual = 0.00691811, Final residual = 3.84657e-09, No Iterations 3
DILUPBiCGStab:  Solving for O2, Initial residual = 0.00274064, Final residual = 1.16216e-09, No Iterations 3
DILUPBiCGStab:  Solving for H2O, Initial residual = 0.00274065, Final residual = 1.16216e-09, No Iterations 3
DILUPBiCGStab:  Solving for CH4, Initial residual = 0, Final residual = 0, No Iterations 0
DILUPBiCGStab:  Solving for CO2, Initial residual = 0.00274065, Final residual = 1.16216e-09, No Iterations 3
DILUPBiCGStab:  Solving for h, Initial residual = 0.00322432, Final residual = 1.0596e-09, No Iterations 3
min/max(T) = 299.99, 1044.97
GAMGPCG:  Solving for p_rgh, Initial residual = 0.0230598, Final residual = 6.49566e-07, No Iterations 4
diagonal:  Solving for rho, Initial residual = 0, Final residual = 0, No Iterations 0
time step continuity errors : sum local = 3.714e-08, global = -2.54285e-09, cumulative = -3.12459e-07
GAMGPCG:  Solving for p_rgh, Initial residual = 0.00260254, Final residual = 8.42185e-07, No Iterations 3
diagonal:  Solving for rho, Initial residual = 0, Final residual = 0, No Iterations 0
time step continuity errors : sum local = 4.74558e-08, global = -1.09815e-09, cumulative = -3.13558e-07
DILUPBiCGStab:  Solving for omega, Initial residual = 9.4997e-05, Final residual = 8.15131e-10, No Iterations 2
DILUPBiCGStab:  Solving for k, Initial residual = 0.00554048, Final residual = 2.06865e-09, No Iterations 3

ExecutionTime = 5.13 s  ClockTime = 5 s

    Overall     = 0.00156558, 0.01
Time = 290

diagonal:  Solving for rho, Initial residual = 0, Final residual = 0, No Iterations 0

Execution time for mesh.update() = 0 s

DILUPBiCGStab:  Solving for Ux, Initial residual = 0.00492374, Final residual = 2.37295e-09, No Iterations 3
DILUPBiCGStab:  Solving for Uy, Initial residual = 0.00691856, Final residual = 3.69955e-09, No Iterations 3
GAMGPCG:  Solving for G, Initial residual = 0.197023, Final residual = 3.19731e-05, No Iterations 6
DILUPBiCGStab:  Solving for O2, Initial residual = 0.00275032, Final residual = 1.07057e-09, No Iterations 3
DILUPBiCGStab:  Solving for H2O, Initial residual = 0.00275034, Final residual = 1.07059e-09, No Iterations 3
DILUPBiCGStab:  Solving for CH4, Initial residual = 0, Final residual = 0, No Iterations 0
DILUPBiCGStab:  Solving for CO2, Initial residual = 0.00275034, Final residual = 1.07059e-09, No Iterations 3
DILUPBiCGStab:  Solving for h, Initial residual = 0.00322721, Final residual = 9.66705e-10, No Iterations 3
min/max(T) = 299.978, 1044.97
GAMGPCG:  Solving for p_rgh, Initial residual = 0.0235469, Final residual = 6.47016e-07, No Iterations 4
diagonal:  Solving for rho, Initial residual = 0, Final residual = 0, No Iterations 0
time step continuity errors : sum local = 3.73871e-08, global = -8.19264e-11, cumulative = -3.1364e-07
GAMGPCG:  Solving for p_rgh, Initial residual = 0.00274486, Final residual = 8.25014e-07, No Iterations 3
diagonal:  Solving for rho, Initial residual = 0, Final residual = 0, No Iterations 0
time step continuity errors : sum local = 4.70196e-08, global = -1.90715e-09, cumulative = -3.15547e-07
DILUPBiCGStab:  Solving for omega, Initial residual = 9.51865e-05, Final residual = 7.26042e-10, No Iterations 2
DILUPBiCGStab:  Solving for k, Initial residual = 0.00556603, Final residual = 2.73292e-09, No Iterations 3

ExecutionTime = 5.38 s  ClockTime = 5 s

    Overall     = 0.00158395, 0.01
Time = 291

diagonal:  Solving for rho, Initial residual = 0, Final residual = 0, No Iterations 0

Execution time for mesh.update() = 0 s

DILUPBiCGStab:  Solving for Ux, Initial residual = 0.00495934, Final residual = 2.21316e-09, No Iterations 3
DILUPBiCGStab:  Solving for Uy, Initial residual = 0.00691614, Final residual = 3.52975e-09, No Iterations 3
DILUPBiCGStab:  Solving for O2, Initial residual = 0.00274298, Final residual = 1.15617e-09, No Iterations 3
DILUPBiCGStab:  Solving for H2O, Initial residual = 0.002743, Final residual = 1.15619e-09, No Iterations 3
DILUPBiCGStab:  Solving for CH4, Initial residual = 0, Final residual = 0, No Iterations 0
DILUPBiCGStab:  Solving for CO2, Initial residual = 0.00274301, Final residual = 1.15619e-09, No Iterations 3
DILUPBiCGStab:  Solving for h, Initial residual = 0.00323072, Final residual = 1.08183e-09, No Iterations 3
min/max(T) = 299.973, 1044.97
GAMGPCG:  Solving for p_rgh, Initial residual = 0.0230871, Final residual = 5.69068e-07, No Iterations 4
diagonal:  Solving for rho, Initial residual = 0, Final residual = 0, No Iterations 0
time step continuity errors : sum local = 3.26919e-08, global = -2.95335e-11, cumulative = -3.15576e-07
GAMGPCG:  Solving for p_rgh, Initial residual = 0.00275151, Final residual = 8.75157e-07, No Iterations 3
diagonal:  Solving for rho, Initial residual = 0, Final residual = 0, No Iterations 0
time step continuity errors : sum local = 4.94122e-08, global = -8.34726e-10, cumulative = -3.16411e-07
DILUPBiCGStab:  Solving for omega, Initial residual = 9.56175e-05, Final residual = 7.21658e-10, No Iterations 2
DILUPBiCGStab:  Solving for k, Initial residual = 0.00559533, Final residual = 2.68639e-09, No Iterations 3

ExecutionTime = 5.49 s  ClockTime = 5 s

    Overall     = 0.00159839, 0.01
Time = 292

diagonal:  Solving for rho, Initial residual = 0, Final residual = 0, No Iterations 0

Execution time for mesh.update() = 0 s

DILUPBiCGStab:  Solving for Ux, Initial residual = 0.0049551, Final residual = 2.15735e-09, No Iterations 3
DILUPBiCGStab:  Solving for Uy, Initial residual = 0.00688918, Final residual = 3.24364e-09, No Iterations 3
DILUPBiCGStab:  Solving for O2, Initial residual = 0.00273207, Final residual = 1.27655e-09, No Iterations 3
DILUPBiCGStab:  Solving for H2O, Initial residual = 0.0027321, Final residual = 1.27657e-09, No Iterations 3
DILUPBiCGStab:  Solving for CH4, Initial residual = 0, Final residual = 0, No Iterations 0
DILUPBiCGStab:  Solving for CO2, Initial residual = 0.0027321, Final residual = 1.27657e-09, No Iterations 3
DILUPBiCGStab:  Solving for h, Initial residual = 0.00321635, Final residual = 1.20281e-09, No Iterations 3
min/max(T) = 299.958, 1044.97
GAMGPCG:  Solving for p_rgh, Initial residual = 0.0234876, Final residual = 6.37322e-07, No Iterations 4
diagonal:  Solving for rho, Initial residual = 0, Final residual = 0, No Iterations 0
time step continuity errors : sum local = 3.67851e-08, global = 9.73125e-12, cumulative = -3.16401e-07
GAMGPCG:  Solving for p_rgh, Initial residual = 0.00283862, Final residual = 1.06991e-07, No Iterations 4
diagonal:  Solving for rho, Initial residual = 0, Final residual = 0, No Iterations 0
time step continuity errors : sum local = 6.09676e-09, global = 1.93453e-10, cumulative = -3.16208e-07
DILUPBiCGStab:  Solving for omega, Initial residual = 9.53142e-05, Final residual = 6.65446e-10, No Iterations 2
DILUPBiCGStab:  Solving for k, Initial residual = 0.00562658, Final residual = 1.46296e-09, No Iterations 3

ExecutionTime = 5.61 s  ClockTime = 5 s

    Overall     = 0.00161868, 0.01
Time = 293

diagonal:  Solving for rho, Initial residual = 0, Final residual = 0, No Iterations 0

Execution time for mesh.update() = 0 s

[...]

Execution time for mesh.update() = 0.01 s

DILUPBiCGStab:  Solving for Ux, Initial residual = 0.00498357, Final residual = 7.35309e-09, No Iterations 3
DILUPBiCGStab:  Solving for Uy, Initial residual = 0.00462792, Final residual = 6.30871e-09, No Iterations 3
GAMGPCG:  Solving for G, Initial residual = 0.236843, Final residual = 7.51761e-05, No Iterations 5
DILUPBiCGStab:  Solving for O2, Initial residual = 0.00175038, Final residual = 2.31423e-09, No Iterations 3
DILUPBiCGStab:  Solving for H2O, Initial residual = 0.00175039, Final residual = 2.31423e-09, No Iterations 3
DILUPBiCGStab:  Solving for CH4, Initial residual = 0, Final residual = 0, No Iterations 0
DILUPBiCGStab:  Solving for CO2, Initial residual = 0.00175039, Final residual = 2.31423e-09, No Iterations 3
DILUPBiCGStab:  Solving for h, Initial residual = 0.00199336, Final residual = 2.40197e-09, No Iterations 3
min/max(T) = 299.956, 1044.97
GAMGPCG:  Solving for p_rgh, Initial residual = 0.0184477, Final residual = 1.49006e-07, No Iterations 5
diagonal:  Solving for rho, Initial residual = 0, Final residual = 0, No Iterations 0
time step continuity errors : sum local = 6.13603e-09, global = -1.10594e-09, cumulative = 6.9097e-07
GAMGPCG:  Solving for p_rgh, Initial residual = 0.00312879, Final residual = 3.39451e-07, No Iterations 4
diagonal:  Solving for rho, Initial residual = 0, Final residual = 0, No Iterations 0
time step continuity errors : sum local = 1.32148e-08, global = 1.42763e-09, cumulative = 6.92398e-07
DILUPBiCGStab:  Solving for omega, Initial residual = 8.61005e-05, Final residual = 1.37465e-09, No Iterations 2
DILUPBiCGStab:  Solving for k, Initial residual = 0.00394051, Final residual = 4.45831e-09, No Iterations 3

ExecutionTime = 292.4 s  ClockTime = 292 s

    Overall     = 0.00121072, 0.01
Time = 2491

diagonal:  Solving for rho, Initial residual = 0, Final residual = 0, No Iterations 0

Execution time for mesh.update() = 0 s

DILUPBiCGStab:  Solving for Ux, Initial residual = 0.00495861, Final residual = 5.55989e-09, No Iterations 3
DILUPBiCGStab:  Solving for Uy, Initial residual = 0.00464512, Final residual = 6.83014e-09, No Iterations 3
DILUPBiCGStab:  Solving for O2, Initial residual = 0.0017491, Final residual = 2.2256e-09, No Iterations 3
DILUPBiCGStab:  Solving for H2O, Initial residual = 0.00174912, Final residual = 2.2256e-09, No Iterations 3
DILUPBiCGStab:  Solving for CH4, Initial residual = 0, Final residual = 0, No Iterations 0
DILUPBiCGStab:  Solving for CO2, Initial residual = 0.00174912, Final residual = 2.2256e-09, No Iterations 3
DILUPBiCGStab:  Solving for h, Initial residual = 0.00198923, Final residual = 2.30272e-09, No Iterations 3
min/max(T) = 299.958, 1044.97
GAMGPCG:  Solving for p_rgh, Initial residual = 0.0181885, Final residual = 1.37572e-07, No Iterations 5
diagonal:  Solving for rho, Initial residual = 0, Final residual = 0, No Iterations 0
time step continuity errors : sum local = 5.62955e-09, global = -1.1513e-09, cumulative = 6.91247e-07
GAMGPCG:  Solving for p_rgh, Initial residual = 0.00311674, Final residual = 3.2749e-07, No Iterations 4
diagonal:  Solving for rho, Initial residual = 0, Final residual = 0, No Iterations 0
time step continuity errors : sum local = 1.27549e-08, global = 1.3342e-09, cumulative = 6.92581e-07
DILUPBiCGStab:  Solving for omega, Initial residual = 8.57025e-05, Final residual = 1.38213e-09, No Iterations 2
DILUPBiCGStab:  Solving for k, Initial residual = 0.0039133, Final residual = 2.94348e-09, No Iterations 3

ExecutionTime = 292.52 s  ClockTime = 292 s

    Overall     = 0.00121926, 0.01
Time = 2492

diagonal:  Solving for rho, Initial residual = 0, Final residual = 0, No Iterations 0

Execution time for mesh.update() = 0 s

DILUPBiCGStab:  Solving for Ux, Initial residual = 0.00494627, Final residual = 5.66814e-09, No Iterations 3
DILUPBiCGStab:  Solving for Uy, Initial residual = 0.00463454, Final residual = 8.59196e-09, No Iterations 3
DILUPBiCGStab:  Solving for O2, Initial residual = 0.00174554, Final residual = 2.32565e-09, No Iterations 3
DILUPBiCGStab:  Solving for H2O, Initial residual = 0.00174554, Final residual = 2.32566e-09, No Iterations 3
DILUPBiCGStab:  Solving for CH4, Initial residual = 0, Final residual = 0, No Iterations 0
DILUPBiCGStab:  Solving for CO2, Initial residual = 0.00174554, Final residual = 2.32566e-09, No Iterations 3
DILUPBiCGStab:  Solving for h, Initial residual = 0.00199076, Final residual = 2.30148e-09, No Iterations 3
min/max(T) = 299.967, 1044.97
GAMGPCG:  Solving for p_rgh, Initial residual = 0.0181348, Final residual = 9.84979e-07, No Iterations 4
diagonal:  Solving for rho, Initial residual = 0, Final residual = 0, No Iterations 0
time step continuity errors : sum local = 3.82424e-08, global = -4.80277e-09, cumulative = 6.87778e-07
GAMGPCG:  Solving for p_rgh, Initial residual = 0.00307678, Final residual = 3.56221e-07, No Iterations 4
diagonal:  Solving for rho, Initial residual = 0, Final residual = 0, No Iterations 0
time step continuity errors : sum local = 1.39081e-08, global = 1.16123e-09, cumulative = 6.88939e-07
DILUPBiCGStab:  Solving for omega, Initial residual = 8.5344e-05, Final residual = 1.2854e-09, No Iterations 2
DILUPBiCGStab:  Solving for k, Initial residual = 0.00388907, Final residual = 2.75005e-09, No Iterations 3

ExecutionTime = 292.63 s  ClockTime = 292 s

    Overall     = 0.0012228, 0.01
Time = 2493

diagonal:  Solving for rho, Initial residual = 0, Final residual = 0, No Iterations 0

Execution time for mesh.update() = 0 s

DILUPBiCGStab:  Solving for Ux, Initial residual = 0.00493525, Final residual = 5.82343e-09, No Iterations 3
DILUPBiCGStab:  Solving for Uy, Initial residual = 0.00462612, Final residual = 8.86806e-09, No Iterations 3
DILUPBiCGStab:  Solving for O2, Initial residual = 0.0017415, Final residual = 5.24232e-09, No Iterations 3
DILUPBiCGStab:  Solving for H2O, Initial residual = 0.00174152, Final residual = 5.24237e-09, No Iterations 3
DILUPBiCGStab:  Solving for CH4, Initial residual = 0, Final residual = 0, No Iterations 0
DILUPBiCGStab:  Solving for CO2, Initial residual = 0.00174152, Final residual = 5.24237e-09, No Iterations 3
DILUPBiCGStab:  Solving for h, Initial residual = 0.00198703, Final residual = 3.38324e-09, No Iterations 3
min/max(T) = 299.965, 1044.97
GAMGPCG:  Solving for p_rgh, Initial residual = 0.0175202, Final residual = 9.56445e-07, No Iterations 4
diagonal:  Solving for rho, Initial residual = 0, Final residual = 0, No Iterations 0
time step continuity errors : sum local = 3.69288e-08, global = -4.83233e-09, cumulative = 6.84107e-07
GAMGPCG:  Solving for p_rgh, Initial residual = 0.0030726, Final residual = 3.63123e-07, No Iterations 4
diagonal:  Solving for rho, Initial residual = 0, Final residual = 0, No Iterations 0
time step continuity errors : sum local = 1.41831e-08, global = 1.05707e-09, cumulative = 6.85164e-07
DILUPBiCGStab:  Solving for omega, Initial residual = 8.53985e-05, Final residual = 1.24116e-09, No Iterations 2
DILUPBiCGStab:  Solving for k, Initial residual = 0.0038764, Final residual = 2.48273e-09, No Iterations 3

ExecutionTime = 292.75 s  ClockTime = 293 s

    Overall     = 0.00123103, 0.01
Time = 2494

diagonal:  Solving for rho, Initial residual = 0, Final residual = 0, No Iterations 0

Execution time for mesh.update() = 0 s

DILUPBiCGStab:  Solving for Ux, Initial residual = 0.00492379, Final residual = 6.0267e-09, No Iterations 3
DILUPBiCGStab:  Solving for Uy, Initial residual = 0.00462443, Final residual = 7.60581e-09, No Iterations 3
DILUPBiCGStab:  Solving for O2, Initial residual = 0.00174585, Final residual = 2.64511e-09, No Iterations 3
DILUPBiCGStab:  Solving for H2O, Initial residual = 0.00174585, Final residual = 2.64487e-09, No Iterations 3
DILUPBiCGStab:  Solving for CH4, Initial residual = 0, Final residual = 0, No Iterations 0
DILUPBiCGStab:  Solving for CO2, Initial residual = 0.00174585, Final residual = 2.64487e-09, No Iterations 3
DILUPBiCGStab:  Solving for h, Initial residual = 0.00199576, Final residual = 1.63177e-09, No Iterations 3
min/max(T) = 299.977, 1044.97
GAMGPCG:  Solving for p_rgh, Initial residual = 0.0175837, Final residual = 9.4031e-07, No Iterations 4
diagonal:  Solving for rho, Initial residual = 0, Final residual = 0, No Iterations 0
time step continuity errors : sum local = 3.65305e-08, global = -5.64865e-09, cumulative = 6.79516e-07
GAMGPCG:  Solving for p_rgh, Initial residual = 0.00307673, Final residual = 3.87552e-07, No Iterations 4
diagonal:  Solving for rho, Initial residual = 0, Final residual = 0, No Iterations 0
time step continuity errors : sum local = 1.5131e-08, global = 8.95321e-10, cumulative = 6.80411e-07
DILUPBiCGStab:  Solving for omega, Initial residual = 8.57596e-05, Final residual = 1.21345e-09, No Iterations 2
DILUPBiCGStab:  Solving for k, Initial residual = 0.00388071, Final residual = 2.81142e-09, No Iterations 3

ExecutionTime = 292.87 s  ClockTime = 293 s

    Overall     = 0.00123469, 0.01
Time = 2495

diagonal:  Solving for rho, Initial residual = 0, Final residual = 0, No Iterations 0

Execution time for mesh.update() = 0 s

DILUPBiCGStab:  Solving for Ux, Initial residual = 0.00493606, Final residual = 6.01074e-09, No Iterations 3
DILUPBiCGStab:  Solving for Uy, Initial residual = 0.00462494, Final residual = 6.18103e-09, No Iterations 3
DILUPBiCGStab:  Solving for O2, Initial residual = 0.00173781, Final residual = 5.55103e-09, No Iterations 3
DILUPBiCGStab:  Solving for H2O, Initial residual = 0.00173783, Final residual = 5.55101e-09, No Iterations 3
DILUPBiCGStab:  Solving for CH4, Initial residual = 0, Final residual = 0, No Iterations 0
DILUPBiCGStab:  Solving for CO2, Initial residual = 0.00173783, Final residual = 5.55101e-09, No Iterations 3
DILUPBiCGStab:  Solving for h, Initial residual = 0.00198414, Final residual = 1.50308e-09, No Iterations 3
min/max(T) = 299.973, 1044.97
GAMGPCG:  Solving for p_rgh, Initial residual = 0.0171385, Final residual = 9.49526e-07, No Iterations 4
diagonal:  Solving for rho, Initial residual = 0, Final residual = 0, No Iterations 0
time step continuity errors : sum local = 3.70936e-08, global = -5.8721e-09, cumulative = 6.74539e-07
GAMGPCG:  Solving for p_rgh, Initial residual = 0.00307834, Final residual = 3.83527e-07, No Iterations 4
diagonal:  Solving for rho, Initial residual = 0, Final residual = 0, No Iterations 0
time step continuity errors : sum local = 1.49775e-08, global = 7.66681e-10, cumulative = 6.75305e-07
DILUPBiCGStab:  Solving for omega, Initial residual = 8.53445e-05, Final residual = 1.16365e-09, No Iterations 2
DILUPBiCGStab:  Solving for k, Initial residual = 0.00385559, Final residual = 3.8991e-09, No Iterations 3

ExecutionTime = 292.98 s  ClockTime = 293 s

    Overall     = 0.00124286, 0.01
Time = 2496

diagonal:  Solving for rho, Initial residual = 0, Final residual = 0, No Iterations 0

Execution time for mesh.update() = 0 s

DILUPBiCGStab:  Solving for Ux, Initial residual = 0.00491753, Final residual = 5.89746e-09, No Iterations 3
DILUPBiCGStab:  Solving for Uy, Initial residual = 0.00462017, Final residual = 5.55871e-09, No Iterations 3
DILUPBiCGStab:  Solving for O2, Initial residual = 0.00173566, Final residual = 3.62217e-09, No Iterations 3
DILUPBiCGStab:  Solving for H2O, Initial residual = 0.00173565, Final residual = 3.62217e-09, No Iterations 3
DILUPBiCGStab:  Solving for CH4, Initial residual = 0, Final residual = 0, No Iterations 0
DILUPBiCGStab:  Solving for CO2, Initial residual = 0.00173565, Final residual = 3.62217e-09, No Iterations 3
DILUPBiCGStab:  Solving for h, Initial residual = 0.00198643, Final residual = 5.30466e-09, No Iterations 3
min/max(T) = 299.987, 1044.97
GAMGPCG:  Solving for p_rgh, Initial residual = 0.0169347, Final residual = 9.73375e-07, No Iterations 4
diagonal:  Solving for rho, Initial residual = 0, Final residual = 0, No Iterations 0
time step continuity errors : sum local = 3.82422e-08, global = -4.71073e-09, cumulative = 6.70595e-07
GAMGPCG:  Solving for p_rgh, Initial residual = 0.00305796, Final residual = 3.76251e-07, No Iterations 4
diagonal:  Solving for rho, Initial residual = 0, Final residual = 0, No Iterations 0
time step continuity errors : sum local = 1.46553e-08, global = 7.30772e-10, cumulative = 6.71325e-07
DILUPBiCGStab:  Solving for omega, Initial residual = 8.50978e-05, Final residual = 1.11578e-09, No Iterations 2
DILUPBiCGStab:  Solving for k, Initial residual = 0.00385073, Final residual = 1.67752e-09, No Iterations 3

ExecutionTime = 293.1 s  ClockTime = 293 s

    Overall     = 0.00124654, 0.01
Time = 2497

diagonal:  Solving for rho, Initial residual = 0, Final residual = 0, No Iterations 0

Execution time for mesh.update() = 0 s

DILUPBiCGStab:  Solving for Ux, Initial residual = 0.00491861, Final residual = 5.92571e-09, No Iterations 3
DILUPBiCGStab:  Solving for Uy, Initial residual = 0.00462361, Final residual = 5.16269e-09, No Iterations 3
DILUPBiCGStab:  Solving for O2, Initial residual = 0.00173356, Final residual = 4.33894e-09, No Iterations 3
DILUPBiCGStab:  Solving for H2O, Initial residual = 0.00173357, Final residual = 4.33894e-09, No Iterations 3
DILUPBiCGStab:  Solving for CH4, Initial residual = 0, Final residual = 0, No Iterations 0
DILUPBiCGStab:  Solving for CO2, Initial residual = 0.00173357, Final residual = 4.33894e-09, No Iterations 3
DILUPBiCGStab:  Solving for h, Initial residual = 0.00198016, Final residual = 5.65568e-09, No Iterations 3
min/max(T) = 299.988, 1044.97
GAMGPCG:  Solving for p_rgh, Initial residual = 0.017279, Final residual = 9.1592e-07, No Iterations 4
diagonal:  Solving for rho, Initial residual = 0, Final residual = 0, No Iterations 0
time step continuity errors : sum local = 3.58507e-08, global = -4.23331e-09, cumulative = 6.67092e-07
GAMGPCG:  Solving for p_rgh, Initial residual = 0.00305785, Final residual = 3.84254e-07, No Iterations 4
diagonal:  Solving for rho, Initial residual = 0, Final residual = 0, No Iterations 0
time step continuity errors : sum local = 1.48837e-08, global = 6.25136e-10, cumulative = 6.67717e-07
DILUPBiCGStab:  Solving for omega, Initial residual = 8.44065e-05, Final residual = 1.13922e-09, No Iterations 2
DILUPBiCGStab:  Solving for k, Initial residual = 0.00382247, Final residual = 8.93577e-10, No Iterations 3

ExecutionTime = 293.21 s  ClockTime = 293 s

    Overall     = 0.00125432, 0.01
Time = 2498

diagonal:  Solving for rho, Initial residual = 0, Final residual = 0, No Iterations 0

Execution time for mesh.update() = 0 s

DILUPBiCGStab:  Solving for Ux, Initial residual = 0.00491751, Final residual = 6.28547e-09, No Iterations 3
DILUPBiCGStab:  Solving for Uy, Initial residual = 0.00463899, Final residual = 5.69023e-09, No Iterations 3
DILUPBiCGStab:  Solving for O2, Initial residual = 0.00173351, Final residual = 6.17263e-09, No Iterations 3
DILUPBiCGStab:  Solving for H2O, Initial residual = 0.0017335, Final residual = 6.17262e-09, No Iterations 3
DILUPBiCGStab:  Solving for CH4, Initial residual = 0, Final residual = 0, No Iterations 0
DILUPBiCGStab:  Solving for CO2, Initial residual = 0.0017335, Final residual = 6.17262e-09, No Iterations 3
DILUPBiCGStab:  Solving for h, Initial residual = 0.0019784, Final residual = 1.80384e-09, No Iterations 3
min/max(T) = 300, 1044.97
GAMGPCG:  Solving for p_rgh, Initial residual = 0.0170004, Final residual = 7.94862e-07, No Iterations 4
diagonal:  Solving for rho, Initial residual = 0, Final residual = 0, No Iterations 0
time step continuity errors : sum local = 3.07953e-08, global = -4.81679e-09, cumulative = 6.62901e-07
GAMGPCG:  Solving for p_rgh, Initial residual = 0.00311238, Final residual = 3.81634e-07, No Iterations 4
diagonal:  Solving for rho, Initial residual = 0, Final residual = 0, No Iterations 0
time step continuity errors : sum local = 1.47558e-08, global = 5.98934e-10, cumulative = 6.63499e-07
DILUPBiCGStab:  Solving for omega, Initial residual = 8.3956e-05, Final residual = 1.20693e-09, No Iterations 2
DILUPBiCGStab:  Solving for k, Initial residual = 0.00380669, Final residual = 2.34597e-09, No Iterations 3

ExecutionTime = 293.33 s  ClockTime = 293 s

    Overall     = 0.00125716, 0.01
Time = 2499

diagonal:  Solving for rho, Initial residual = 0, Final residual = 0, No Iterations 0

Execution time for mesh.update() = 0 s

DILUPBiCGStab:  Solving for Ux, Initial residual = 0.00491851, Final residual = 7.29868e-09, No Iterations 3
DILUPBiCGStab:  Solving for Uy, Initial residual = 0.00462362, Final residual = 6.09422e-09, No Iterations 3
DILUPBiCGStab:  Solving for O2, Initial residual = 0.00172134, Final residual = 1.89135e-09, No Iterations 3
DILUPBiCGStab:  Solving for H2O, Initial residual = 0.00172133, Final residual = 1.89135e-09, No Iterations 3
DILUPBiCGStab:  Solving for CH4, Initial residual = 0, Final residual = 0, No Iterations 0
DILUPBiCGStab:  Solving for CO2, Initial residual = 0.00172133, Final residual = 1.89135e-09, No Iterations 3
DILUPBiCGStab:  Solving for h, Initial residual = 0.00196356, Final residual = 2.01634e-09, No Iterations 3
min/max(T) = 300, 1044.97
GAMGPCG:  Solving for p_rgh, Initial residual = 0.0172136, Final residual = 7.53113e-07, No Iterations 4
diagonal:  Solving for rho, Initial residual = 0, Final residual = 0, No Iterations 0
time step continuity errors : sum local = 2.89712e-08, global = -3.91494e-09, cumulative = 6.59585e-07
GAMGPCG:  Solving for p_rgh, Initial residual = 0.00307847, Final residual = 3.7917e-07, No Iterations 4
diagonal:  Solving for rho, Initial residual = 0, Final residual = 0, No Iterations 0
time step continuity errors : sum local = 1.46743e-08, global = 5.73716e-10, cumulative = 6.60158e-07
DILUPBiCGStab:  Solving for omega, Initial residual = 8.44077e-05, Final residual = 1.26379e-09, No Iterations 2
DILUPBiCGStab:  Solving for k, Initial residual = 0.0038051, Final residual = 2.81622e-09, No Iterations 3

ExecutionTime = 293.44 s  ClockTime = 293 s

    Overall     = 0.0012642, 0.01
Time = 2500

diagonal:  Solving for rho, Initial residual = 0, Final residual = 0, No Iterations 0

Execution time for mesh.update() = 0 s

DILUPBiCGStab:  Solving for Ux, Initial residual = 0.00493363, Final residual = 5.68111e-09, No Iterations 3
DILUPBiCGStab:  Solving for Uy, Initial residual = 0.00464282, Final residual = 6.21968e-09, No Iterations 3
GAMGPCG:  Solving for G, Initial residual = 0.192905, Final residual = 2.53167e-05, No Iterations 6
DILUPBiCGStab:  Solving for O2, Initial residual = 0.00171746, Final residual = 2.21701e-09, No Iterations 3
DILUPBiCGStab:  Solving for H2O, Initial residual = 0.00171746, Final residual = 2.217e-09, No Iterations 3
DILUPBiCGStab:  Solving for CH4, Initial residual = 0, Final residual = 0, No Iterations 0
DILUPBiCGStab:  Solving for CO2, Initial residual = 0.00171746, Final residual = 2.217e-09, No Iterations 3
DILUPBiCGStab:  Solving for h, Initial residual = 0.00195761, Final residual = 2.20882e-09, No Iterations 3
min/max(T) = 300, 1044.97
GAMGPCG:  Solving for p_rgh, Initial residual = 0.017432, Final residual = 7.63904e-07, No Iterations 4
diagonal:  Solving for rho, Initial residual = 0, Final residual = 0, No Iterations 0
time step continuity errors : sum local = 2.96288e-08, global = -3.39897e-09, cumulative = 6.56759e-07
GAMGPCG:  Solving for p_rgh, Initial residual = 0.00309879, Final residual = 3.64917e-07, No Iterations 4
diagonal:  Solving for rho, Initial residual = 0, Final residual = 0, No Iterations 0
time step continuity errors : sum local = 1.4198e-08, global = 4.02065e-10, cumulative = 6.57161e-07
DILUPBiCGStab:  Solving for omega, Initial residual = 8.4247e-05, Final residual = 1.30178e-09, No Iterations 2
DILUPBiCGStab:  Solving for k, Initial residual = 0.00379378, Final residual = 3.39322e-09, No Iterations 3

ExecutionTime = 293.7 s  ClockTime = 293 s


Patch Mean : 303.21
Patch Variance : 0.0201347
Patch Gradient : 0.224982
End
