/*---------------------------------------------------------------------------*\
  =========                 |
  \\      /  F ield         | OpenFOAM: The Open Source CFD Toolbox
   \\    /   O peration     | Website:  https://openfoam.org
    \\  /    A nd           | Version:  dev
     \\/     M anipulation  |
\*---------------------------------------------------------------------------*/
Build  : dev-cabe48fb62c1
Exec   : fireDyMFoam
Date   : Apr 15 2019
Time   : 14:02:40
Host   : "Host"
PID    : 7259
I/O    : uncollated
Case   : /home/tesla/OpenFOAM/tesla-dev/run/rollerOpt_COBYLA_NEW
nProcs : 1
sigFpe : Enabling floating point exception trapping (FOAM_SIGFPE).
fileModificationChecking : Monitoring run-time modified files using timeStampMaster (fileModificationSkew 10)
allowSystemOperations : Allowing user-supplied system call operations

// * * * * * * * * * * * * * * * * * * * * * * * * * * * * * * * * * * * * * //
Create time

--> FOAM Warning : 
    From function void* Foam::dlOpen(const Foam::fileName&, bool)
    in file POSIX.C at line 1268
    dlopen error : libgroovyBC.so: cannot open shared object file: No such file or directory
--> FOAM Warning : 
    From function bool Foam::dlLibraryTable::open(const Foam::fileName&, bool)
    in file db/dynamicLibrary/dlLibraryTable/dlLibraryTable.C at line 105
    could not load "libgroovyBC.so"
Create mesh for time = 250

Selecting dynamicFvMesh dynamicRefineFvMesh
Detected 539 cells that are protected from refinement. Writing these to cellSet protectedCells.

PIMPLE: No convergence criteria found


PIMPLE: Operating solver in PISO mode


Initializing Solver

Selecting thermodynamics package 
{
    type            hePsiThermo;
    mixture         reactingMixture;
    transport       sutherland;
    thermo          janaf;
    energy          sensibleEnthalpy;
    equationOfState perfectGas;
    specie          specie;
}

Selecting chemistryReader foamChemistryReader
    elements not defined in "/home/tesla/OpenFOAM/tesla-dev/run/rollerOpt_COBYLA_NEW/constant/reactions"
Reading/calculating face flux field phi

No MRF models present

Selecting turbulence model type RAS
Selecting RAS turbulence model kOmegaSST
Selecting patchDistMethod meshWave
kOmegaSSTCoeffs
{
    delta           cubeRootVol;
    cubeRootVolCoeffs
    {
        deltaCoeff      1;
    }
    alphaK1         0.85;
    alphaK2         1;
    alphaOmega1     0.5;
    alphaOmega2     0.856;
    gamma1          0.555556;
    gamma2          0.44;
    beta1           0.075;
    beta2           0.0828;
    betaStar        0.09;
    a1              0.31;
    b1              1;
    c1              10;
    F3              false;
}

Selecting combustion model none<psiThermoCombustion>
--> FOAM Warning : 
    From function static Foam::autoPtr<T> Foam::combustionModel::New(typename CombustionModel::reactionThermo&, const Foam::compressibleTurbulenceModel&, const Foam::word&) [with CombustionModel = Foam::CombustionModel<Foam::psiReactionThermo>; typename CombustionModel::reactionThermo = Foam::psiReactionThermo]
    in file /home/tesla/OpenFOAM/OpenFOAM-dev/src/combustionModels/lnInclude/combustionModelTemplates.C at line 69
    Template parameters are no longer required when selecting a combustionModel. This information is now obtained directly from the thermodynamics. Actually selecting combustion model none.

Reading g

Reading hRef
Calculating field g.h


Reading pRef
Selecting radiationModel P1
Selecting absorptionEmissionModel greyMeanAbsorptionEmission
Selecting scatterModel none
Selecting sootModel none
Creating finite volume options from "system/fvOptions"

No finite volume options present
Using LTS

Starting time loop

Using dynamicCode for functionObject patchCalcs at line 64 in "/home/tesla/OpenFOAM/tesla-dev/run/rollerOpt_COBYLA_NEW/system/controlDict.functions.patchCalcs"
    Overall     = 0.00162643, 0.01
Time = 251

diagonal:  Solving for rho, Initial residual = 0, Final residual = 0, No Iterations 0

Execution time for mesh.update() = 0 s

DILUPBiCGStab:  Solving for Ux, Initial residual = 0.0055473, Final residual = 4.8627e-09, No Iterations 3
DILUPBiCGStab:  Solving for Uy, Initial residual = 0.00819422, Final residual = 5.89715e-09, No Iterations 3
GAMGPCG:  Solving for G, Initial residual = 0.0319759, Final residual = 3.43114e-05, No Iterations 4
DILUPBiCGStab:  Solving for O2, Initial residual = 0.00320377, Final residual = 2.08844e-09, No Iterations 3
DILUPBiCGStab:  Solving for H2O, Initial residual = 0.00320416, Final residual = 2.08817e-09, No Iterations 3
DILUPBiCGStab:  Solving for CH4, Initial residual = 0, Final residual = 0, No Iterations 0
DILUPBiCGStab:  Solving for CO2, Initial residual = 0.00320415, Final residual = 2.08812e-09, No Iterations 3
DILUPBiCGStab:  Solving for h, Initial residual = 0.0037086, Final residual = 2.08508e-09, No Iterations 3
min/max(T) = 299.56, 1044.98
GAMGPCG:  Solving for p_rgh, Initial residual = 0.0197594, Final residual = 7.67668e-07, No Iterations 4
diagonal:  Solving for rho, Initial residual = 0, Final residual = 0, No Iterations 0
time step continuity errors : sum local = 2.46645e-06, global = -1.36537e-07, cumulative = -1.36537e-07
GAMGPCG:  Solving for p_rgh, Initial residual = 0.00262662, Final residual = 2.6588e-07, No Iterations 4
diagonal:  Solving for rho, Initial residual = 0, Final residual = 0, No Iterations 0
time step continuity errors : sum local = 2.46275e-06, global = -1.33737e-07, cumulative = -2.70275e-07
DILUPBiCGStab:  Solving for omega, Initial residual = 0.000117, Final residual = 1.71354e-09, No Iterations 2
DILUPBiCGStab:  Solving for k, Initial residual = 0.00629823, Final residual = 1.93762e-09, No Iterations 3

ExecutionTime = 0.38 s  ClockTime = 1 s

    Overall     = 0.00162698, 0.01
Time = 252

diagonal:  Solving for rho, Initial residual = 0, Final residual = 0, No Iterations 0

Execution time for mesh.update() = 0 s

DILUPBiCGStab:  Solving for Ux, Initial residual = 0.00553496, Final residual = 5.23958e-09, No Iterations 3
DILUPBiCGStab:  Solving for Uy, Initial residual = 0.00815768, Final residual = 6.02497e-09, No Iterations 3
DILUPBiCGStab:  Solving for O2, Initial residual = 0.00319834, Final residual = 1.93786e-09, No Iterations 3
DILUPBiCGStab:  Solving for H2O, Initial residual = 0.00319858, Final residual = 1.93785e-09, No Iterations 3
DILUPBiCGStab:  Solving for CH4, Initial residual = 0, Final residual = 0, No Iterations 0
DILUPBiCGStab:  Solving for CO2, Initial residual = 0.00319858, Final residual = 1.93785e-09, No Iterations 3
DILUPBiCGStab:  Solving for h, Initial residual = 0.00370372, Final residual = 1.98229e-09, No Iterations 3
min/max(T) = 299.546, 1044.98
GAMGPCG:  Solving for p_rgh, Initial residual = 0.0196276, Final residual = 7.48478e-07, No Iterations 4
diagonal:  Solving for rho, Initial residual = 0, Final residual = 0, No Iterations 0
time step continuity errors : sum local = 4.28475e-08, global = -5.91979e-10, cumulative = -2.70866e-07
GAMGPCG:  Solving for p_rgh, Initial residual = 0.00248551, Final residual = 2.10597e-07, No Iterations 4
diagonal:  Solving for rho, Initial residual = 0, Final residual = 0, No Iterations 0
time step continuity errors : sum local = 1.1374e-08, global = 1.55991e-09, cumulative = -2.69307e-07
DILUPBiCGStab:  Solving for omega, Initial residual = 0.00011674, Final residual = 1.6045e-09, No Iterations 2
DILUPBiCGStab:  Solving for k, Initial residual = 0.00634048, Final residual = 1.61219e-09, No Iterations 3

ExecutionTime = 0.49 s  ClockTime = 1 s

    Overall     = 0.00162672, 0.01
Time = 253

diagonal:  Solving for rho, Initial residual = 0, Final residual = 0, No Iterations 0

Execution time for mesh.update() = 0 s

DILUPBiCGStab:  Solving for Ux, Initial residual = 0.00554965, Final residual = 5.20398e-09, No Iterations 3
DILUPBiCGStab:  Solving for Uy, Initial residual = 0.00815838, Final residual = 6.10303e-09, No Iterations 3
DILUPBiCGStab:  Solving for O2, Initial residual = 0.00318913, Final residual = 1.99062e-09, No Iterations 3
DILUPBiCGStab:  Solving for H2O, Initial residual = 0.00318956, Final residual = 1.99061e-09, No Iterations 3
DILUPBiCGStab:  Solving for CH4, Initial residual = 0, Final residual = 0, No Iterations 0
DILUPBiCGStab:  Solving for CO2, Initial residual = 0.00318956, Final residual = 1.99061e-09, No Iterations 3
DILUPBiCGStab:  Solving for h, Initial residual = 0.00370151, Final residual = 2.01164e-09, No Iterations 3
min/max(T) = 299.561, 1044.98
GAMGPCG:  Solving for p_rgh, Initial residual = 0.0197594, Final residual = 6.45474e-07, No Iterations 4
diagonal:  Solving for rho, Initial residual = 0, Final residual = 0, No Iterations 0
time step continuity errors : sum local = 3.65159e-08, global = -3.8792e-09, cumulative = -2.73186e-07
GAMGPCG:  Solving for p_rgh, Initial residual = 0.00249077, Final residual = 2.00547e-07, No Iterations 4
diagonal:  Solving for rho, Initial residual = 0, Final residual = 0, No Iterations 0
time step continuity errors : sum local = 1.0775e-08, global = 1.46832e-09, cumulative = -2.71717e-07
DILUPBiCGStab:  Solving for omega, Initial residual = 0.000116568, Final residual = 1.56956e-09, No Iterations 2
DILUPBiCGStab:  Solving for k, Initial residual = 0.00637933, Final residual = 6.69721e-09, No Iterations 3

ExecutionTime = 0.61 s  ClockTime = 1 s

    Overall     = 0.00162712, 0.01
Time = 254

diagonal:  Solving for rho, Initial residual = 0, Final residual = 0, No Iterations 0

Execution time for mesh.update() = 0 s

DILUPBiCGStab:  Solving for Ux, Initial residual = 0.00553009, Final residual = 5.37259e-09, No Iterations 3
DILUPBiCGStab:  Solving for Uy, Initial residual = 0.00812856, Final residual = 6.34996e-09, No Iterations 3
DILUPBiCGStab:  Solving for O2, Initial residual = 0.00318295, Final residual = 1.95967e-09, No Iterations 3
DILUPBiCGStab:  Solving for H2O, Initial residual = 0.00318319, Final residual = 1.95968e-09, No Iterations 3
DILUPBiCGStab:  Solving for CH4, Initial residual = 0, Final residual = 0, No Iterations 0
DILUPBiCGStab:  Solving for CO2, Initial residual = 0.00318319, Final residual = 1.95968e-09, No Iterations 3
DILUPBiCGStab:  Solving for h, Initial residual = 0.00369835, Final residual = 2.04485e-09, No Iterations 3
min/max(T) = 299.546, 1044.98
GAMGPCG:  Solving for p_rgh, Initial residual = 0.0192818, Final residual = 6.10114e-07, No Iterations 4
diagonal:  Solving for rho, Initial residual = 0, Final residual = 0, No Iterations 0
time step continuity errors : sum local = 3.48345e-08, global = -3.74391e-09, cumulative = -2.75461e-07
GAMGPCG:  Solving for p_rgh, Initial residual = 0.00242802, Final residual = 1.77292e-07, No Iterations 4
diagonal:  Solving for rho, Initial residual = 0, Final residual = 0, No Iterations 0
time step continuity errors : sum local = 9.5646e-09, global = 1.27446e-09, cumulative = -2.74187e-07
DILUPBiCGStab:  Solving for omega, Initial residual = 0.000116352, Final residual = 1.58185e-09, No Iterations 2
DILUPBiCGStab:  Solving for k, Initial residual = 0.00641684, Final residual = 5.36288e-09, No Iterations 3

ExecutionTime = 0.73 s  ClockTime = 1 s

    Overall     = 0.0016263, 0.01
Time = 255

diagonal:  Solving for rho, Initial residual = 0, Final residual = 0, No Iterations 0

Execution time for mesh.update() = 0 s

DILUPBiCGStab:  Solving for Ux, Initial residual = 0.00553765, Final residual = 5.20859e-09, No Iterations 3
DILUPBiCGStab:  Solving for Uy, Initial residual = 0.00811903, Final residual = 6.26381e-09, No Iterations 3
DILUPBiCGStab:  Solving for O2, Initial residual = 0.00318124, Final residual = 2.00561e-09, No Iterations 3
DILUPBiCGStab:  Solving for H2O, Initial residual = 0.00318163, Final residual = 2.00565e-09, No Iterations 3
DILUPBiCGStab:  Solving for CH4, Initial residual = 0, Final residual = 0, No Iterations 0
DILUPBiCGStab:  Solving for CO2, Initial residual = 0.00318163, Final residual = 2.00564e-09, No Iterations 3
DILUPBiCGStab:  Solving for h, Initial residual = 0.00370541, Final residual = 2.11462e-09, No Iterations 3
min/max(T) = 299.56, 1044.98
GAMGPCG:  Solving for p_rgh, Initial residual = 0.0194744, Final residual = 4.9716e-07, No Iterations 4
diagonal:  Solving for rho, Initial residual = 0, Final residual = 0, No Iterations 0
time step continuity errors : sum local = 2.7667e-08, global = 1.50077e-09, cumulative = -2.72686e-07
GAMGPCG:  Solving for p_rgh, Initial residual = 0.00239247, Final residual = 1.67206e-07, No Iterations 4
diagonal:  Solving for rho, Initial residual = 0, Final residual = 0, No Iterations 0
time step continuity errors : sum local = 9.02332e-09, global = 1.16241e-09, cumulative = -2.71524e-07
DILUPBiCGStab:  Solving for omega, Initial residual = 0.000116908, Final residual = 1.79836e-09, No Iterations 2
DILUPBiCGStab:  Solving for k, Initial residual = 0.00646001, Final residual = 6.26115e-09, No Iterations 3

ExecutionTime = 0.84 s  ClockTime = 1 s

    Overall     = 0.00162584, 0.01
Time = 256

diagonal:  Solving for rho, Initial residual = 0, Final residual = 0, No Iterations 0

Execution time for mesh.update() = 0 s

DILUPBiCGStab:  Solving for Ux, Initial residual = 0.00552665, Final residual = 5.81566e-09, No Iterations 3
DILUPBiCGStab:  Solving for Uy, Initial residual = 0.00810311, Final residual = 6.55269e-09, No Iterations 3
DILUPBiCGStab:  Solving for O2, Initial residual = 0.00317252, Final residual = 2.13572e-09, No Iterations 3
DILUPBiCGStab:  Solving for H2O, Initial residual = 0.00317289, Final residual = 2.13579e-09, No Iterations 3
DILUPBiCGStab:  Solving for CH4, Initial residual = 0, Final residual = 0, No Iterations 0
DILUPBiCGStab:  Solving for CO2, Initial residual = 0.00317289, Final residual = 2.13578e-09, No Iterations 3
DILUPBiCGStab:  Solving for h, Initial residual = 0.00370026, Final residual = 2.33293e-09, No Iterations 3
min/max(T) = 299.545, 1044.98
GAMGPCG:  Solving for p_rgh, Initial residual = 0.0194713, Final residual = 4.4916e-07, No Iterations 4
diagonal:  Solving for rho, Initial residual = 0, Final residual = 0, No Iterations 0
time step continuity errors : sum local = 2.52576e-08, global = -4.13829e-11, cumulative = -2.71565e-07
GAMGPCG:  Solving for p_rgh, Initial residual = 0.00241046, Final residual = 1.52986e-07, No Iterations 4
diagonal:  Solving for rho, Initial residual = 0, Final residual = 0, No Iterations 0
time step continuity errors : sum local = 8.23577e-09, global = 1.03281e-09, cumulative = -2.70532e-07
DILUPBiCGStab:  Solving for omega, Initial residual = 0.000116567, Final residual = 1.82026e-09, No Iterations 2
DILUPBiCGStab:  Solving for k, Initial residual = 0.00650532, Final residual = 5.45309e-09, No Iterations 3

ExecutionTime = 0.96 s  ClockTime = 1 s

    Overall     = 0.00162405, 0.01
Time = 257

diagonal:  Solving for rho, Initial residual = 0, Final residual = 0, No Iterations 0

Execution time for mesh.update() = 0 s

DILUPBiCGStab:  Solving for Ux, Initial residual = 0.00553835, Final residual = 5.57399e-09, No Iterations 3
DILUPBiCGStab:  Solving for Uy, Initial residual = 0.0080816, Final residual = 6.74517e-09, No Iterations 3
DILUPBiCGStab:  Solving for O2, Initial residual = 0.00317006, Final residual = 2.0834e-09, No Iterations 3
DILUPBiCGStab:  Solving for H2O, Initial residual = 0.00317042, Final residual = 2.08346e-09, No Iterations 3
DILUPBiCGStab:  Solving for CH4, Initial residual = 0, Final residual = 0, No Iterations 0
DILUPBiCGStab:  Solving for CO2, Initial residual = 0.00317042, Final residual = 2.08345e-09, No Iterations 3
DILUPBiCGStab:  Solving for h, Initial residual = 0.00369965, Final residual = 2.28753e-09, No Iterations 3
min/max(T) = 299.559, 1044.98
GAMGPCG:  Solving for p_rgh, Initial residual = 0.0194808, Final residual = 5.74521e-07, No Iterations 4
diagonal:  Solving for rho, Initial residual = 0, Final residual = 0, No Iterations 0
time step continuity errors : sum local = 3.29686e-08, global = 2.29259e-09, cumulative = -2.6824e-07
GAMGPCG:  Solving for p_rgh, Initial residual = 0.00239364, Final residual = 1.50391e-07, No Iterations 4
diagonal:  Solving for rho, Initial residual = 0, Final residual = 0, No Iterations 0
time step continuity errors : sum local = 8.06116e-09, global = 8.87037e-10, cumulative = -2.67353e-07
DILUPBiCGStab:  Solving for omega, Initial residual = 0.000116705, Final residual = 2.00002e-09, No Iterations 2
DILUPBiCGStab:  Solving for k, Initial residual = 0.00654398, Final residual = 7.06154e-09, No Iterations 3

ExecutionTime = 1.07 s  ClockTime = 1 s

    Overall     = 0.00162305, 0.01
Time = 258

diagonal:  Solving for rho, Initial residual = 0, Final residual = 0, No Iterations 0

Execution time for mesh.update() = 0 s

DILUPBiCGStab:  Solving for Ux, Initial residual = 0.00554172, Final residual = 5.97008e-09, No Iterations 3
DILUPBiCGStab:  Solving for Uy, Initial residual = 0.00808315, Final residual = 7.33203e-09, No Iterations 3
DILUPBiCGStab:  Solving for O2, Initial residual = 0.00316926, Final residual = 2.03212e-09, No Iterations 3
DILUPBiCGStab:  Solving for H2O, Initial residual = 0.0031696, Final residual = 2.03216e-09, No Iterations 3
DILUPBiCGStab:  Solving for CH4, Initial residual = 0, Final residual = 0, No Iterations 0
DILUPBiCGStab:  Solving for CO2, Initial residual = 0.0031696, Final residual = 2.03216e-09, No Iterations 3
DILUPBiCGStab:  Solving for h, Initial residual = 0.0037062, Final residual = 2.25899e-09, No Iterations 3
min/max(T) = 299.543, 1044.98
GAMGPCG:  Solving for p_rgh, Initial residual = 0.0197199, Final residual = 4.91117e-07, No Iterations 4
diagonal:  Solving for rho, Initial residual = 0, Final residual = 0, No Iterations 0
time step continuity errors : sum local = 2.78919e-08, global = 1.84344e-09, cumulative = -2.65509e-07
GAMGPCG:  Solving for p_rgh, Initial residual = 0.00243579, Final residual = 1.75449e-07, No Iterations 4
diagonal:  Solving for rho, Initial residual = 0, Final residual = 0, No Iterations 0
time step continuity errors : sum local = 9.36747e-09, global = 1.06263e-09, cumulative = -2.64447e-07
DILUPBiCGStab:  Solving for omega, Initial residual = 0.000116364, Final residual = 1.97551e-09, No Iterations 2
DILUPBiCGStab:  Solving for k, Initial residual = 0.00658421, Final residual = 8.80917e-10, No Iterations 3

ExecutionTime = 1.19 s  ClockTime = 1 s

    Overall     = 0.00162038, 0.01
Time = 259

diagonal:  Solving for rho, Initial residual = 0, Final residual = 0, No Iterations 0

Execution time for mesh.update() = 0 s

DILUPBiCGStab:  Solving for Ux, Initial residual = 0.0055684, Final residual = 5.29918e-09, No Iterations 3
DILUPBiCGStab:  Solving for Uy, Initial residual = 0.00810513, Final residual = 7.42791e-09, No Iterations 3
DILUPBiCGStab:  Solving for O2, Initial residual = 0.00317243, Final residual = 2.34782e-09, No Iterations 3
DILUPBiCGStab:  Solving for H2O, Initial residual = 0.00317275, Final residual = 2.34785e-09, No Iterations 3
DILUPBiCGStab:  Solving for CH4, Initial residual = 0, Final residual = 0, No Iterations 0
DILUPBiCGStab:  Solving for CO2, Initial residual = 0.00317275, Final residual = 2.34785e-09, No Iterations 3
DILUPBiCGStab:  Solving for h, Initial residual = 0.00371144, Final residual = 2.58275e-09, No Iterations 3
min/max(T) = 299.557, 1044.98
GAMGPCG:  Solving for p_rgh, Initial residual = 0.0196588, Final residual = 5.76391e-07, No Iterations 4
diagonal:  Solving for rho, Initial residual = 0, Final residual = 0, No Iterations 0
time step continuity errors : sum local = 3.30773e-08, global = 2.10967e-09, cumulative = -2.62337e-07
GAMGPCG:  Solving for p_rgh, Initial residual = 0.00243007, Final residual = 1.74437e-07, No Iterations 4
diagonal:  Solving for rho, Initial residual = 0, Final residual = 0, No Iterations 0
time step continuity errors : sum local = 9.25218e-09, global = 8.75426e-10, cumulative = -2.61462e-07
DILUPBiCGStab:  Solving for omega, Initial residual = 0.000116812, Final residual = 2.1173e-09, No Iterations 2
DILUPBiCGStab:  Solving for k, Initial residual = 0.00662033, Final residual = 9.53137e-10, No Iterations 3

ExecutionTime = 1.31 s  ClockTime = 1 s

    Overall     = 0.00161777, 0.01
Time = 260

diagonal:  Solving for rho, Initial residual = 0, Final residual = 0, No Iterations 0

Execution time for mesh.update() = 0 s

DILUPBiCGStab:  Solving for Ux, Initial residual = 0.00557339, Final residual = 5.80967e-09, No Iterations 3
DILUPBiCGStab:  Solving for Uy, Initial residual = 0.00810217, Final residual = 8.89048e-09, No Iterations 3
GAMGPCG:  Solving for G, Initial residual = 0.130752, Final residual = 8.26493e-05, No Iterations 5
DILUPBiCGStab:  Solving for O2, Initial residual = 0.00317267, Final residual = 2.97883e-09, No Iterations 3
DILUPBiCGStab:  Solving for H2O, Initial residual = 0.00317299, Final residual = 2.97885e-09, No Iterations 3
DILUPBiCGStab:  Solving for CH4, Initial residual = 0, Final residual = 0, No Iterations 0
DILUPBiCGStab:  Solving for CO2, Initial residual = 0.00317299, Final residual = 2.97886e-09, No Iterations 3
DILUPBiCGStab:  Solving for h, Initial residual = 0.00371326, Final residual = 3.188e-09, No Iterations 3
min/max(T) = 299.539, 1044.98
GAMGPCG:  Solving for p_rgh, Initial residual = 0.0195088, Final residual = 4.92465e-07, No Iterations 4
diagonal:  Solving for rho, Initial residual = 0, Final residual = 0, No Iterations 0
time step continuity errors : sum local = 2.7911e-08, global = 1.53798e-09, cumulative = -2.59924e-07
GAMGPCG:  Solving for p_rgh, Initial residual = 0.00242399, Final residual = 1.91297e-07, No Iterations 4
diagonal:  Solving for rho, Initial residual = 0, Final residual = 0, No Iterations 0
time step continuity errors : sum local = 1.01897e-08, global = 1.04604e-09, cumulative = -2.58877e-07
DILUPBiCGStab:  Solving for omega, Initial residual = 0.000116739, Final residual = 2.16957e-09, No Iterations 2
DILUPBiCGStab:  Solving for k, Initial residual = 0.00665195, Final residual = 7.87041e-09, No Iterations 3

ExecutionTime = 1.56 s  ClockTime = 2 s

    Overall     = 0.00161341, 0.01
Time = 261

diagonal:  Solving for rho, Initial residual = 0, Final residual = 0, No Iterations 0

Execution time for mesh.update() = 0 s

DILUPBiCGStab:  Solving for Ux, Initial residual = 0.00557909, Final residual = 5.54161e-09, No Iterations 3
DILUPBiCGStab:  Solving for Uy, Initial residual = 0.00811554, Final residual = 9.3755e-09, No Iterations 3
DILUPBiCGStab:  Solving for O2, Initial residual = 0.00317373, Final residual = 4.79655e-09, No Iterations 3
DILUPBiCGStab:  Solving for H2O, Initial residual = 0.00317404, Final residual = 4.79659e-09, No Iterations 3
DILUPBiCGStab:  Solving for CH4, Initial residual = 0, Final residual = 0, No Iterations 0
DILUPBiCGStab:  Solving for CO2, Initial residual = 0.00317404, Final residual = 4.79661e-09, No Iterations 3
DILUPBiCGStab:  Solving for h, Initial residual = 0.00372199, Final residual = 4.64895e-09, No Iterations 3
min/max(T) = 299.552, 1044.98
GAMGPCG:  Solving for p_rgh, Initial residual = 0.0199792, Final residual = 6.06818e-07, No Iterations 4
diagonal:  Solving for rho, Initial residual = 0, Final residual = 0, No Iterations 0
time step continuity errors : sum local = 3.48326e-08, global = 1.23894e-09, cumulative = -2.57639e-07
GAMGPCG:  Solving for p_rgh, Initial residual = 0.00238383, Final residual = 1.7936e-07, No Iterations 4
diagonal:  Solving for rho, Initial residual = 0, Final residual = 0, No Iterations 0
time step continuity errors : sum local = 9.53316e-09, global = 9.29171e-10, cumulative = -2.56709e-07
DILUPBiCGStab:  Solving for omega, Initial residual = 0.00011616, Final residual = 2.22987e-09, No Iterations 2
DILUPBiCGStab:  Solving for k, Initial residual = 0.00667064, Final residual = 1.07598e-09, No Iterations 3

ExecutionTime = 1.68 s  ClockTime = 2 s

    Overall     = 0.00160972, 0.01
Time = 262

diagonal:  Solving for rho, Initial residual = 0, Final residual = 0, No Iterations 0

Execution time for mesh.update() = 0 s

DILUPBiCGStab:  Solving for Ux, Initial residual = 0.005583, Final residual = 6.48054e-09, No Iterations 3
DILUPBiCGStab:  Solving for Uy, Initial residual = 0.00811785, Final residual = 1.0272e-09, No Iterations 3
DILUPBiCGStab:  Solving for O2, Initial residual = 0.0031732, Final residual = 6.30694e-09, No Iterations 3
DILUPBiCGStab:  Solving for H2O, Initial residual = 0.00317353, Final residual = 6.30669e-09, No Iterations 3
DILUPBiCGStab:  Solving for CH4, Initial residual = 0, Final residual = 0, No Iterations 0
DILUPBiCGStab:  Solving for CO2, Initial residual = 0.00317353, Final residual = 6.30669e-09, No Iterations 3
DILUPBiCGStab:  Solving for h, Initial residual = 0.00372934, Final residual = 5.31323e-09, No Iterations 3
min/max(T) = 299.533, 1044.98
GAMGPCG:  Solving for p_rgh, Initial residual = 0.0199178, Final residual = 4.52865e-07, No Iterations 4
diagonal:  Solving for rho, Initial residual = 0, Final residual = 0, No Iterations 0
time step continuity errors : sum local = 2.57596e-08, global = 1.96887e-09, cumulative = -2.54741e-07
GAMGPCG:  Solving for p_rgh, Initial residual = 0.00244359, Final residual = 1.69097e-07, No Iterations 4
diagonal:  Solving for rho, Initial residual = 0, Final residual = 0, No Iterations 0
time step continuity errors : sum local = 9.02738e-09, global = 9.46113e-10, cumulative = -2.53794e-07
DILUPBiCGStab:  Solving for omega, Initial residual = 0.000115289, Final residual = 2.26177e-09, No Iterations 2
DILUPBiCGStab:  Solving for k, Initial residual = 0.00669942, Final residual = 9.90192e-10, No Iterations 3

ExecutionTime = 1.79 s  ClockTime = 2 s

    Overall     = 0.00160428, 0.01
Time = 263

diagonal:  Solving for rho, Initial residual = 0, Final residual = 0, No Iterations 0

Execution time for mesh.update() = 0 s

DILUPBiCGStab:  Solving for Ux, Initial residual = 0.00560561, Final residual = 6.86873e-09, No Iterations 3
DILUPBiCGStab:  Solving for Uy, Initial residual = 0.00812277, Final residual = 1.09476e-09, No Iterations 3
DILUPBiCGStab:  Solving for O2, Initial residual = 0.00317817, Final residual = 2.83757e-11, No Iterations 4
DILUPBiCGStab:  Solving for H2O, Initial residual = 0.0031785, Final residual = 2.83767e-11, No Iterations 4
DILUPBiCGStab:  Solving for CH4, Initial residual = 0, Final residual = 0, No Iterations 0
DILUPBiCGStab:  Solving for CO2, Initial residual = 0.0031785, Final residual = 2.83766e-11, No Iterations 4
DILUPBiCGStab:  Solving for h, Initial residual = 0.00373502, Final residual = 2.47935e-09, No Iterations 3
min/max(T) = 299.545, 1044.98
GAMGPCG:  Solving for p_rgh, Initial residual = 0.0201432, Final residual = 5.08954e-07, No Iterations 4
diagonal:  Solving for rho, Initial residual = 0, Final residual = 0, No Iterations 0
time step continuity errors : sum local = 2.9395e-08, global = 2.02413e-09, cumulative = -2.5177e-07
GAMGPCG:  Solving for p_rgh, Initial residual = 0.00241291, Final residual = 1.71158e-07, No Iterations 4
diagonal:  Solving for rho, Initial residual = 0, Final residual = 0, No Iterations 0
time step continuity errors : sum local = 9.09e-09, global = 9.22476e-10, cumulative = -2.50848e-07
DILUPBiCGStab:  Solving for omega, Initial residual = 0.000115548, Final residual = 2.10203e-09, No Iterations 2
DILUPBiCGStab:  Solving for k, Initial residual = 0.00673492, Final residual = 4.52055e-09, No Iterations 3

ExecutionTime = 1.91 s  ClockTime = 2 s

    Overall     = 0.00159938, 0.01
Time = 264

diagonal:  Solving for rho, Initial residual = 0, Final residual = 0, No Iterations 0

Execution time for mesh.update() = 0 s

DILUPBiCGStab:  Solving for Ux, Initial residual = 0.00562574, Final residual = 7.53555e-09, No Iterations 3
DILUPBiCGStab:  Solving for Uy, Initial residual = 0.0081153, Final residual = 1.17004e-09, No Iterations 3
DILUPBiCGStab:  Solving for O2, Initial residual = 0.00319239, Final residual = 4.97618e-09, No Iterations 3
DILUPBiCGStab:  Solving for H2O, Initial residual = 0.00319274, Final residual = 4.97543e-09, No Iterations 3
DILUPBiCGStab:  Solving for CH4, Initial residual = 0, Final residual = 0, No Iterations 0
DILUPBiCGStab:  Solving for CO2, Initial residual = 0.00319274, Final residual = 4.97545e-09, No Iterations 3
DILUPBiCGStab:  Solving for h, Initial residual = 0.00375047, Final residual = 5.9505e-09, No Iterations 3
min/max(T) = 299.524, 1044.98
GAMGPCG:  Solving for p_rgh, Initial residual = 0.020199, Final residual = 4.54284e-07, No Iterations 4
diagonal:  Solving for rho, Initial residual = 0, Final residual = 0, No Iterations 0
time step continuity errors : sum local = 2.55659e-08, global = 1.66832e-10, cumulative = -2.50681e-07
GAMGPCG:  Solving for p_rgh, Initial residual = 0.0024142, Final residual = 1.59443e-07, No Iterations 4
diagonal:  Solving for rho, Initial residual = 0, Final residual = 0, No Iterations 0
time step continuity errors : sum local = 8.53368e-09, global = 9.89976e-10, cumulative = -2.49691e-07
DILUPBiCGStab:  Solving for omega, Initial residual = 0.000115695, Final residual = 1.98156e-09, No Iterations 2
DILUPBiCGStab:  Solving for k, Initial residual = 0.00677267, Final residual = 2.21561e-09, No Iterations 3

ExecutionTime = 2.03 s  ClockTime = 2 s

    Overall     = 0.00159296, 0.01
Time = 265

diagonal:  Solving for rho, Initial residual = 0, Final residual = 0, No Iterations 0

Execution time for mesh.update() = 0 s

DILUPBiCGStab:  Solving for Ux, Initial residual = 0.00564852, Final residual = 7.57179e-09, No Iterations 3
DILUPBiCGStab:  Solving for Uy, Initial residual = 0.00811414, Final residual = 1.29069e-09, No Iterations 3
DILUPBiCGStab:  Solving for O2, Initial residual = 0.00320131, Final residual = 5.66403e-09, No Iterations 3
DILUPBiCGStab:  Solving for H2O, Initial residual = 0.00320165, Final residual = 5.66317e-09, No Iterations 3
DILUPBiCGStab:  Solving for CH4, Initial residual = 0, Final residual = 0, No Iterations 0
DILUPBiCGStab:  Solving for CO2, Initial residual = 0.00320165, Final residual = 5.6632e-09, No Iterations 3
DILUPBiCGStab:  Solving for h, Initial residual = 0.00376578, Final residual = 7.59658e-09, No Iterations 3
min/max(T) = 299.536, 1044.98
GAMGPCG:  Solving for p_rgh, Initial residual = 0.0210226, Final residual = 3.77449e-07, No Iterations 4
diagonal:  Solving for rho, Initial residual = 0, Final residual = 0, No Iterations 0
time step continuity errors : sum local = 2.12581e-08, global = 2.45824e-09, cumulative = -2.47233e-07
GAMGPCG:  Solving for p_rgh, Initial residual = 0.00243626, Final residual = 1.41164e-07, No Iterations 4
diagonal:  Solving for rho, Initial residual = 0, Final residual = 0, No Iterations 0
time step continuity errors : sum local = 7.53176e-09, global = 9.01843e-10, cumulative = -2.46331e-07
DILUPBiCGStab:  Solving for omega, Initial residual = 0.000116456, Final residual = 1.93391e-09, No Iterations 2
DILUPBiCGStab:  Solving for k, Initial residual = 0.00680147, Final residual = 1.64585e-09, No Iterations 3

ExecutionTime = 2.14 s  ClockTime = 2 s

    Overall     = 0.00158744, 0.01
Time = 266

diagonal:  Solving for rho, Initial residual = 0, Final residual = 0, No Iterations 0

Execution time for mesh.update() = 0 s

DILUPBiCGStab:  Solving for Ux, Initial residual = 0.0056734, Final residual = 7.35449e-09, No Iterations 3
DILUPBiCGStab:  Solving for Uy, Initial residual = 0.0081072, Final residual = 1.10949e-09, No Iterations 3
DILUPBiCGStab:  Solving for O2, Initial residual = 0.0031986, Final residual = 2.63466e-09, No Iterations 3
DILUPBiCGStab:  Solving for H2O, Initial residual = 0.00319896, Final residual = 2.6347e-09, No Iterations 3
DILUPBiCGStab:  Solving for CH4, Initial residual = 0, Final residual = 0, No Iterations 0
DILUPBiCGStab:  Solving for CO2, Initial residual = 0.00319896, Final residual = 2.63469e-09, No Iterations 3
DILUPBiCGStab:  Solving for h, Initial residual = 0.00377099, Final residual = 2.97952e-09, No Iterations 3
min/max(T) = 299.514, 1044.98
GAMGPCG:  Solving for p_rgh, Initial residual = 0.0206925, Final residual = 4.68378e-07, No Iterations 4
diagonal:  Solving for rho, Initial residual = 0, Final residual = 0, No Iterations 0
time step continuity errors : sum local = 2.62927e-08, global = -2.83142e-09, cumulative = -2.49162e-07
GAMGPCG:  Solving for p_rgh, Initial residual = 0.00250098, Final residual = 9.51208e-07, No Iterations 3
diagonal:  Solving for rho, Initial residual = 0, Final residual = 0, No Iterations 0
time step continuity errors : sum local = 5.12725e-08, global = 6.03153e-10, cumulative = -2.48559e-07
DILUPBiCGStab:  Solving for omega, Initial residual = 0.000116733, Final residual = 1.85721e-09, No Iterations 2
DILUPBiCGStab:  Solving for k, Initial residual = 0.00683482, Final residual = 1.44504e-09, No Iterations 3

ExecutionTime = 2.26 s  ClockTime = 2 s

    Overall     = 0.00158054, 0.01
Time = 267

diagonal:  Solving for rho, Initial residual = 0, Final residual = 0, No Iterations 0

Execution time for mesh.update() = 0 s

DILUPBiCGStab:  Solving for Ux, Initial residual = 0.0056794, Final residual = 7.65069e-09, No Iterations 3
DILUPBiCGStab:  Solving for Uy, Initial residual = 0.00809197, Final residual = 9.17836e-10, No Iterations 3
DILUPBiCGStab:  Solving for O2, Initial residual = 0.00320167, Final residual = 2.57218e-09, No Iterations 3
DILUPBiCGStab:  Solving for H2O, Initial residual = 0.00320201, Final residual = 2.57225e-09, No Iterations 3
DILUPBiCGStab:  Solving for CH4, Initial residual = 0, Final residual = 0, No Iterations 0
DILUPBiCGStab:  Solving for CO2, Initial residual = 0.00320201, Final residual = 2.57224e-09, No Iterations 3
DILUPBiCGStab:  Solving for h, Initial residual = 0.00377843, Final residual = 2.7498e-09, No Iterations 3
min/max(T) = 299.526, 1044.98
GAMGPCG:  Solving for p_rgh, Initial residual = 0.0210023, Final residual = 4.1026e-07, No Iterations 4
diagonal:  Solving for rho, Initial residual = 0, Final residual = 0, No Iterations 0
time step continuity errors : sum local = 2.26952e-08, global = 9.95734e-10, cumulative = -2.47563e-07
GAMGPCG:  Solving for p_rgh, Initial residual = 0.00249037, Final residual = 9.79362e-07, No Iterations 3
diagonal:  Solving for rho, Initial residual = 0, Final residual = 0, No Iterations 0
time step continuity errors : sum local = 5.24234e-08, global = 5.7433e-10, cumulative = -2.46989e-07
DILUPBiCGStab:  Solving for omega, Initial residual = 0.000116604, Final residual = 1.9235e-09, No Iterations 2
DILUPBiCGStab:  Solving for k, Initial residual = 0.00684644, Final residual = 2.88037e-09, No Iterations 3

ExecutionTime = 2.37 s  ClockTime = 3 s

    Overall     = 0.00157377, 0.01
Time = 268

diagonal:  Solving for rho, Initial residual = 0, Final residual = 0, No Iterations 0

Execution time for mesh.update() = 0 s

DILUPBiCGStab:  Solving for Ux, Initial residual = 0.00569445, Final residual = 6.97367e-09, No Iterations 3
DILUPBiCGStab:  Solving for Uy, Initial residual = 0.00808263, Final residual = 9.97262e-10, No Iterations 3
DILUPBiCGStab:  Solving for O2, Initial residual = 0.00320642, Final residual = 2.56213e-09, No Iterations 3
DILUPBiCGStab:  Solving for H2O, Initial residual = 0.00320678, Final residual = 2.56221e-09, No Iterations 3
DILUPBiCGStab:  Solving for CH4, Initial residual = 0, Final residual = 0, No Iterations 0
DILUPBiCGStab:  Solving for CO2, Initial residual = 0.00320678, Final residual = 2.56221e-09, No Iterations 3
DILUPBiCGStab:  Solving for h, Initial residual = 0.00378313, Final residual = 2.74505e-09, No Iterations 3
min/max(T) = 299.501, 1044.98
GAMGPCG:  Solving for p_rgh, Initial residual = 0.0205721, Final residual = 5.56702e-07, No Iterations 4
diagonal:  Solving for rho, Initial residual = 0, Final residual = 0, No Iterations 0
time step continuity errors : sum local = 3.10286e-08, global = -3.76847e-09, cumulative = -2.50758e-07
GAMGPCG:  Solving for p_rgh, Initial residual = 0.00250879, Final residual = 9.10355e-07, No Iterations 3
diagonal:  Solving for rho, Initial residual = 0, Final residual = 0, No Iterations 0
time step continuity errors : sum local = 4.92014e-08, global = 1.85058e-10, cumulative = -2.50573e-07
DILUPBiCGStab:  Solving for omega, Initial residual = 0.000116747, Final residual = 1.96412e-09, No Iterations 2
DILUPBiCGStab:  Solving for k, Initial residual = 0.00687473, Final residual = 9.11206e-09, No Iterations 3

ExecutionTime = 2.48 s  ClockTime = 3 s

    Overall     = 0.00156568, 0.01
Time = 269

diagonal:  Solving for rho, Initial residual = 0, Final residual = 0, No Iterations 0

Execution time for mesh.update() = 0 s

DILUPBiCGStab:  Solving for Ux, Initial residual = 0.00571437, Final residual = 8.55653e-09, No Iterations 3
DILUPBiCGStab:  Solving for Uy, Initial residual = 0.00809688, Final residual = 9.717e-09, No Iterations 3
DILUPBiCGStab:  Solving for O2, Initial residual = 0.00320833, Final residual = 2.58281e-09, No Iterations 3
DILUPBiCGStab:  Solving for H2O, Initial residual = 0.00320872, Final residual = 2.58289e-09, No Iterations 3
DILUPBiCGStab:  Solving for CH4, Initial residual = 0, Final residual = 0, No Iterations 0
DILUPBiCGStab:  Solving for CO2, Initial residual = 0.00320872, Final residual = 2.58289e-09, No Iterations 3
DILUPBiCGStab:  Solving for h, Initial residual = 0.00378776, Final residual = 2.69516e-09, No Iterations 3
min/max(T) = 299.512, 1044.98
GAMGPCG:  Solving for p_rgh, Initial residual = 0.0208793, Final residual = 5.53267e-07, No Iterations 4
diagonal:  Solving for rho, Initial residual = 0, Final residual = 0, No Iterations 0
time step continuity errors : sum local = 3.10048e-08, global = -3.74091e-09, cumulative = -2.54313e-07
GAMGPCG:  Solving for p_rgh, Initial residual = 0.00253567, Final residual = 8.75452e-07, No Iterations 3
diagonal:  Solving for rho, Initial residual = 0, Final residual = 0, No Iterations 0
time step continuity errors : sum local = 4.71609e-08, global = 7.93778e-10, cumulative = -2.5352e-07
DILUPBiCGStab:  Solving for omega, Initial residual = 0.000117035, Final residual = 2.01027e-09, No Iterations 2
DILUPBiCGStab:  Solving for k, Initial residual = 0.00689134, Final residual = 4.04825e-09, No Iterations 3

ExecutionTime = 2.6 s  ClockTime = 3 s

    Overall     = 0.00155786, 0.01
Time = 270

diagonal:  Solving for rho, Initial residual = 0, Final residual = 0, No Iterations 0

Execution time for mesh.update() = 0 s

DILUPBiCGStab:  Solving for Ux, Initial residual = 0.00574428, Final residual = 7.80627e-09, No Iterations 3
DILUPBiCGStab:  Solving for Uy, Initial residual = 0.00808142, Final residual = 9.15881e-09, No Iterations 3
GAMGPCG:  Solving for G, Initial residual = 0.164721, Final residual = 3.96107e-05, No Iterations 5
DILUPBiCGStab:  Solving for O2, Initial residual = 0.0032022, Final residual = 2.77637e-09, No Iterations 3
DILUPBiCGStab:  Solving for H2O, Initial residual = 0.00320257, Final residual = 2.77651e-09, No Iterations 3
DILUPBiCGStab:  Solving for CH4, Initial residual = 0, Final residual = 0, No Iterations 0
DILUPBiCGStab:  Solving for CO2, Initial residual = 0.00320257, Final residual = 2.77651e-09, No Iterations 3
DILUPBiCGStab:  Solving for h, Initial residual = 0.00378362, Final residual = 2.97479e-09, No Iterations 3
min/max(T) = 299.487, 1044.98
GAMGPCG:  Solving for p_rgh, Initial residual = 0.0205883, Final residual = 5.85801e-07, No Iterations 4
diagonal:  Solving for rho, Initial residual = 0, Final residual = 0, No Iterations 0
time step continuity errors : sum local = 3.31437e-08, global = -3.70143e-09, cumulative = -2.57221e-07
GAMGPCG:  Solving for p_rgh, Initial residual = 0.00252402, Final residual = 8.45381e-07, No Iterations 3
diagonal:  Solving for rho, Initial residual = 0, Final residual = 0, No Iterations 0
time step continuity errors : sum local = 4.5611e-08, global = -7.43774e-10, cumulative = -2.57965e-07
DILUPBiCGStab:  Solving for omega, Initial residual = 0.00011767, Final residual = 2.07493e-09, No Iterations 2
DILUPBiCGStab:  Solving for k, Initial residual = 0.00692973, Final residual = 8.21174e-10, No Iterations 3

ExecutionTime = 2.85 s  ClockTime = 3 s

    Overall     = 0.00154873, 0.01
Time = 271

diagonal:  Solving for rho, Initial residual = 0, Final residual = 0, No Iterations 0

Execution time for mesh.update() = 0 s

DILUPBiCGStab:  Solving for Ux, Initial residual = 0.0057524, Final residual = 6.77239e-09, No Iterations 3
DILUPBiCGStab:  Solving for Uy, Initial residual = 0.00807025, Final residual = 7.96751e-09, No Iterations 3
DILUPBiCGStab:  Solving for O2, Initial residual = 0.0032091, Final residual = 3.04582e-09, No Iterations 3
DILUPBiCGStab:  Solving for H2O, Initial residual = 0.00320955, Final residual = 3.04603e-09, No Iterations 3
DILUPBiCGStab:  Solving for CH4, Initial residual = 0, Final residual = 0, No Iterations 0
DILUPBiCGStab:  Solving for CO2, Initial residual = 0.00320955, Final residual = 3.04603e-09, No Iterations 3
DILUPBiCGStab:  Solving for h, Initial residual = 0.00379387, Final residual = 3.26999e-09, No Iterations 3
min/max(T) = 299.498, 1044.98
GAMGPCG:  Solving for p_rgh, Initial residual = 0.020774, Final residual = 4.18019e-07, No Iterations 4
diagonal:  Solving for rho, Initial residual = 0, Final residual = 0, No Iterations 0
time step continuity errors : sum local = 2.35878e-08, global = -1.88017e-09, cumulative = -2.59845e-07
GAMGPCG:  Solving for p_rgh, Initial residual = 0.00256404, Final residual = 9.00821e-07, No Iterations 3
diagonal:  Solving for rho, Initial residual = 0, Final residual = 0, No Iterations 0
time step continuity errors : sum local = 4.86056e-08, global = -1.2166e-09, cumulative = -2.61062e-07
DILUPBiCGStab:  Solving for omega, Initial residual = 0.000117185, Final residual = 2.24577e-09, No Iterations 2
DILUPBiCGStab:  Solving for k, Initial residual = 0.00696006, Final residual = 9.73176e-09, No Iterations 3

ExecutionTime = 2.96 s  ClockTime = 3 s

    Overall     = 0.00154105, 0.01
Time = 272

diagonal:  Solving for rho, Initial residual = 0, Final residual = 0, No Iterations 0

Execution time for mesh.update() = 0 s

DILUPBiCGStab:  Solving for Ux, Initial residual = 0.00578295, Final residual = 6.62475e-09, No Iterations 3
DILUPBiCGStab:  Solving for Uy, Initial residual = 0.00805941, Final residual = 8.00429e-09, No Iterations 3
DILUPBiCGStab:  Solving for O2, Initial residual = 0.00321102, Final residual = 3.25002e-09, No Iterations 3
DILUPBiCGStab:  Solving for H2O, Initial residual = 0.00321141, Final residual = 3.25028e-09, No Iterations 3
DILUPBiCGStab:  Solving for CH4, Initial residual = 0, Final residual = 0, No Iterations 0
DILUPBiCGStab:  Solving for CO2, Initial residual = 0.00321141, Final residual = 3.25028e-09, No Iterations 3
DILUPBiCGStab:  Solving for h, Initial residual = 0.0038017, Final residual = 3.48812e-09, No Iterations 3
min/max(T) = 299.472, 1044.98
GAMGPCG:  Solving for p_rgh, Initial residual = 0.0202766, Final residual = 4.89511e-07, No Iterations 4
diagonal:  Solving for rho, Initial residual = 0, Final residual = 0, No Iterations 0
time step continuity errors : sum local = 2.7787e-08, global = -3.38825e-09, cumulative = -2.6445e-07
GAMGPCG:  Solving for p_rgh, Initial residual = 0.00259363, Final residual = 8.8898e-07, No Iterations 3
diagonal:  Solving for rho, Initial residual = 0, Final residual = 0, No Iterations 0
time step continuity errors : sum local = 4.78911e-08, global = -2.03457e-09, cumulative = -2.66484e-07
DILUPBiCGStab:  Solving for omega, Initial residual = 0.000118271, Final residual = 2.29708e-09, No Iterations 2
DILUPBiCGStab:  Solving for k, Initial residual = 0.00700676, Final residual = 1.20258e-09, No Iterations 3

ExecutionTime = 3.07 s  ClockTime = 3 s

    Overall     = 0.00153164, 0.01
Time = 273

diagonal:  Solving for rho, Initial residual = 0, Final residual = 0, No Iterations 0

Execution time for mesh.update() = 0 s

DILUPBiCGStab:  Solving for Ux, Initial residual = 0.00578916, Final residual = 5.39944e-09, No Iterations 3
DILUPBiCGStab:  Solving for Uy, Initial residual = 0.0080508, Final residual = 7.64644e-09, No Iterations 3
DILUPBiCGStab:  Solving for O2, Initial residual = 0.00322369, Final residual = 3.72093e-09, No Iterations 3
DILUPBiCGStab:  Solving for H2O, Initial residual = 0.00322415, Final residual = 3.72131e-09, No Iterations 3
DILUPBiCGStab:  Solving for CH4, Initial residual = 0, Final residual = 0, No Iterations 0
DILUPBiCGStab:  Solving for CO2, Initial residual = 0.00322415, Final residual = 3.72131e-09, No Iterations 3
DILUPBiCGStab:  Solving for h, Initial residual = 0.0038161, Final residual = 3.97134e-09, No Iterations 3
min/max(T) = 299.482, 1044.98
GAMGPCG:  Solving for p_rgh, Initial residual = 0.0203225, Final residual = 4.32504e-07, No Iterations 4
diagonal:  Solving for rho, Initial residual = 0, Final residual = 0, No Iterations 0
time step continuity errors : sum local = 2.44082e-08, global = -9.17998e-10, cumulative = -2.67402e-07
GAMGPCG:  Solving for p_rgh, Initial residual = 0.00254604, Final residual = 9.07512e-07, No Iterations 3
diagonal:  Solving for rho, Initial residual = 0, Final residual = 0, No Iterations 0
time step continuity errors : sum local = 4.86444e-08, global = -1.6322e-09, cumulative = -2.69035e-07
DILUPBiCGStab:  Solving for omega, Initial residual = 0.000118165, Final residual = 2.24077e-09, No Iterations 2
DILUPBiCGStab:  Solving for k, Initial residual = 0.00704653, Final residual = 2.99447e-09, No Iterations 3

ExecutionTime = 3.19 s  ClockTime = 3 s

    Overall     = 0.00152369, 0.01
Time = 274

diagonal:  Solving for rho, Initial residual = 0, Final residual = 0, No Iterations 0

Execution time for mesh.update() = 0 s

DILUPBiCGStab:  Solving for Ux, Initial residual = 0.00581661, Final residual = 6.86875e-09, No Iterations 3
DILUPBiCGStab:  Solving for Uy, Initial residual = 0.00804738, Final residual = 8.39109e-09, No Iterations 3
DILUPBiCGStab:  Solving for O2, Initial residual = 0.00322958, Final residual = 3.71294e-09, No Iterations 3
DILUPBiCGStab:  Solving for H2O, Initial residual = 0.00322999, Final residual = 3.7133e-09, No Iterations 3
DILUPBiCGStab:  Solving for CH4, Initial residual = 0, Final residual = 0, No Iterations 0
DILUPBiCGStab:  Solving for CO2, Initial residual = 0.00322999, Final residual = 3.7133e-09, No Iterations 3
DILUPBiCGStab:  Solving for h, Initial residual = 0.00382824, Final residual = 4.09208e-09, No Iterations 3
min/max(T) = 299.458, 1044.98
GAMGPCG:  Solving for p_rgh, Initial residual = 0.0202365, Final residual = 4.64406e-07, No Iterations 4
diagonal:  Solving for rho, Initial residual = 0, Final residual = 0, No Iterations 0
time step continuity errors : sum local = 2.63955e-08, global = -2.14769e-09, cumulative = -2.71182e-07
GAMGPCG:  Solving for p_rgh, Initial residual = 0.00261686, Final residual = 9.0997e-07, No Iterations 3
diagonal:  Solving for rho, Initial residual = 0, Final residual = 0, No Iterations 0
time step continuity errors : sum local = 4.89558e-08, global = -2.06631e-09, cumulative = -2.73249e-07
DILUPBiCGStab:  Solving for omega, Initial residual = 0.000118683, Final residual = 2.16037e-09, No Iterations 2
DILUPBiCGStab:  Solving for k, Initial residual = 0.00708482, Final residual = 7.55598e-09, No Iterations 3

ExecutionTime = 3.3 s  ClockTime = 3 s

    Overall     = 0.00151376, 0.01
Time = 275

diagonal:  Solving for rho, Initial residual = 0, Final residual = 0, No Iterations 0

Execution time for mesh.update() = 0 s

DILUPBiCGStab:  Solving for Ux, Initial residual = 0.00582746, Final residual = 6.0753e-09, No Iterations 3
DILUPBiCGStab:  Solving for Uy, Initial residual = 0.00803494, Final residual = 7.7095e-09, No Iterations 3
DILUPBiCGStab:  Solving for O2, Initial residual = 0.0032334, Final residual = 3.79526e-09, No Iterations 3
DILUPBiCGStab:  Solving for H2O, Initial residual = 0.00323389, Final residual = 3.79562e-09, No Iterations 3
DILUPBiCGStab:  Solving for CH4, Initial residual = 0, Final residual = 0, No Iterations 0
DILUPBiCGStab:  Solving for CO2, Initial residual = 0.00323389, Final residual = 3.79562e-09, No Iterations 3
DILUPBiCGStab:  Solving for h, Initial residual = 0.00383899, Final residual = 4.13366e-09, No Iterations 3
min/max(T) = 299.468, 1044.98
GAMGPCG:  Solving for p_rgh, Initial residual = 0.0204021, Final residual = 4.75401e-07, No Iterations 4
diagonal:  Solving for rho, Initial residual = 0, Final residual = 0, No Iterations 0
time step continuity errors : sum local = 2.66914e-08, global = -8.94868e-10, cumulative = -2.74143e-07
GAMGPCG:  Solving for p_rgh, Initial residual = 0.00259147, Final residual = 9.4393e-07, No Iterations 3
diagonal:  Solving for rho, Initial residual = 0, Final residual = 0, No Iterations 0
time step continuity errors : sum local = 5.06985e-08, global = -8.83886e-10, cumulative = -2.75027e-07
DILUPBiCGStab:  Solving for omega, Initial residual = 0.000119195, Final residual = 2.20683e-09, No Iterations 2
DILUPBiCGStab:  Solving for k, Initial residual = 0.00712476, Final residual = 6.52645e-09, No Iterations 3

ExecutionTime = 3.41 s  ClockTime = 4 s

    Overall     = 0.00150594, 0.01
Time = 276

diagonal:  Solving for rho, Initial residual = 0, Final residual = 0, No Iterations 0

Execution time for mesh.update() = 0 s

DILUPBiCGStab:  Solving for Ux, Initial residual = 0.00585459, Final residual = 7.22144e-09, No Iterations 3
DILUPBiCGStab:  Solving for Uy, Initial residual = 0.00800557, Final residual = 7.75274e-09, No Iterations 3
DILUPBiCGStab:  Solving for O2, Initial residual = 0.00324083, Final residual = 4.2378e-09, No Iterations 3
DILUPBiCGStab:  Solving for H2O, Initial residual = 0.00324126, Final residual = 4.23812e-09, No Iterations 3
DILUPBiCGStab:  Solving for CH4, Initial residual = 0, Final residual = 0, No Iterations 0
DILUPBiCGStab:  Solving for CO2, Initial residual = 0.00324126, Final residual = 4.23812e-09, No Iterations 3
DILUPBiCGStab:  Solving for h, Initial residual = 0.00384774, Final residual = 4.35596e-09, No Iterations 3
min/max(T) = 299.444, 1044.98
GAMGPCG:  Solving for p_rgh, Initial residual = 0.0202149, Final residual = 4.85647e-07, No Iterations 4
diagonal:  Solving for rho, Initial residual = 0, Final residual = 0, No Iterations 0
time step continuity errors : sum local = 2.74228e-08, global = -1.64807e-09, cumulative = -2.76675e-07
GAMGPCG:  Solving for p_rgh, Initial residual = 0.00261366, Final residual = 9.51053e-07, No Iterations 3
diagonal:  Solving for rho, Initial residual = 0, Final residual = 0, No Iterations 0
time step continuity errors : sum local = 5.08914e-08, global = -1.85172e-09, cumulative = -2.78527e-07
DILUPBiCGStab:  Solving for omega, Initial residual = 0.000119979, Final residual = 2.09007e-09, No Iterations 2
DILUPBiCGStab:  Solving for k, Initial residual = 0.00715383, Final residual = 2.54824e-09, No Iterations 3

ExecutionTime = 3.52 s  ClockTime = 4 s

    Overall     = 0.00149615, 0.01
Time = 277

diagonal:  Solving for rho, Initial residual = 0, Final residual = 0, No Iterations 0

Execution time for mesh.update() = 0 s

DILUPBiCGStab:  Solving for Ux, Initial residual = 0.00585706, Final residual = 6.88443e-09, No Iterations 3
DILUPBiCGStab:  Solving for Uy, Initial residual = 0.00797636, Final residual = 7.87971e-09, No Iterations 3
DILUPBiCGStab:  Solving for O2, Initial residual = 0.00324497, Final residual = 3.98177e-09, No Iterations 3
DILUPBiCGStab:  Solving for H2O, Initial residual = 0.0032454, Final residual = 3.98201e-09, No Iterations 3
DILUPBiCGStab:  Solving for CH4, Initial residual = 0, Final residual = 0, No Iterations 0
DILUPBiCGStab:  Solving for CO2, Initial residual = 0.0032454, Final residual = 3.98201e-09, No Iterations 3
DILUPBiCGStab:  Solving for h, Initial residual = 0.00385481, Final residual = 4.09274e-09, No Iterations 3
min/max(T) = 299.456, 1044.98
GAMGPCG:  Solving for p_rgh, Initial residual = 0.0204077, Final residual = 5.377e-07, No Iterations 4
diagonal:  Solving for rho, Initial residual = 0, Final residual = 0, No Iterations 0
time step continuity errors : sum local = 2.98549e-08, global = -1.26192e-09, cumulative = -2.79789e-07
GAMGPCG:  Solving for p_rgh, Initial residual = 0.00262727, Final residual = 1.3922e-07, No Iterations 4
diagonal:  Solving for rho, Initial residual = 0, Final residual = 0, No Iterations 0
time step continuity errors : sum local = 7.49356e-09, global = 9.43849e-10, cumulative = -2.78845e-07
DILUPBiCGStab:  Solving for omega, Initial residual = 0.000119969, Final residual = 2.05475e-09, No Iterations 2
DILUPBiCGStab:  Solving for k, Initial residual = 0.00717942, Final residual = 1.40974e-09, No Iterations 3

ExecutionTime = 3.65 s  ClockTime = 4 s

    Overall     = 0.00148846, 0.01
Time = 278

diagonal:  Solving for rho, Initial residual = 0, Final residual = 0, No Iterations 0

Execution time for mesh.update() = 0 s

DILUPBiCGStab:  Solving for Ux, Initial residual = 0.0058718, Final residual = 7.41612e-09, No Iterations 3
DILUPBiCGStab:  Solving for Uy, Initial residual = 0.00795911, Final residual = 7.90213e-09, No Iterations 3
DILUPBiCGStab:  Solving for O2, Initial residual = 0.00325031, Final residual = 3.62034e-09, No Iterations 3
DILUPBiCGStab:  Solving for H2O, Initial residual = 0.00325076, Final residual = 3.62062e-09, No Iterations 3
DILUPBiCGStab:  Solving for CH4, Initial residual = 0, Final residual = 0, No Iterations 0
DILUPBiCGStab:  Solving for CO2, Initial residual = 0.00325076, Final residual = 3.62062e-09, No Iterations 3
DILUPBiCGStab:  Solving for h, Initial residual = 0.00386295, Final residual = 3.92083e-09, No Iterations 3
min/max(T) = 299.431, 1044.98
GAMGPCG:  Solving for p_rgh, Initial residual = 0.0203381, Final residual = 5.22168e-07, No Iterations 4
diagonal:  Solving for rho, Initial residual = 0, Final residual = 0, No Iterations 0
time step continuity errors : sum local = 2.91307e-08, global = -1.71123e-09, cumulative = -2.80556e-07
GAMGPCG:  Solving for p_rgh, Initial residual = 0.00259567, Final residual = 1.35637e-07, No Iterations 4
diagonal:  Solving for rho, Initial residual = 0, Final residual = 0, No Iterations 0
time step continuity errors : sum local = 7.34165e-09, global = 9.61505e-10, cumulative = -2.79595e-07
DILUPBiCGStab:  Solving for omega, Initial residual = 0.000120335, Final residual = 1.89701e-09, No Iterations 2
DILUPBiCGStab:  Solving for k, Initial residual = 0.00720944, Final residual = 1.21211e-09, No Iterations 3

ExecutionTime = 3.76 s  ClockTime = 4 s

    Overall     = 0.00147962, 0.01
Time = 279

diagonal:  Solving for rho, Initial residual = 0, Final residual = 0, No Iterations 0

Execution time for mesh.update() = 0 s

DILUPBiCGStab:  Solving for Ux, Initial residual = 0.00588863, Final residual = 6.12931e-09, No Iterations 3
DILUPBiCGStab:  Solving for Uy, Initial residual = 0.00793473, Final residual = 8.84856e-09, No Iterations 3
DILUPBiCGStab:  Solving for O2, Initial residual = 0.00325665, Final residual = 3.21938e-09, No Iterations 3
DILUPBiCGStab:  Solving for H2O, Initial residual = 0.00325709, Final residual = 3.21953e-09, No Iterations 3
DILUPBiCGStab:  Solving for CH4, Initial residual = 0, Final residual = 0, No Iterations 0
DILUPBiCGStab:  Solving for CO2, Initial residual = 0.00325709, Final residual = 3.21953e-09, No Iterations 3
DILUPBiCGStab:  Solving for h, Initial residual = 0.00387203, Final residual = 3.46644e-09, No Iterations 3
min/max(T) = 299.446, 1044.98
GAMGPCG:  Solving for p_rgh, Initial residual = 0.0203539, Final residual = 6.16341e-07, No Iterations 4
diagonal:  Solving for rho, Initial residual = 0, Final residual = 0, No Iterations 0
time step continuity errors : sum local = 3.39207e-08, global = -1.13282e-09, cumulative = -2.80728e-07
GAMGPCG:  Solving for p_rgh, Initial residual = 0.00263753, Final residual = 2.08177e-07, No Iterations 4
diagonal:  Solving for rho, Initial residual = 0, Final residual = 0, No Iterations 0
time step continuity errors : sum local = 1.12124e-08, global = 1.44856e-09, cumulative = -2.79279e-07
DILUPBiCGStab:  Solving for omega, Initial residual = 0.00012078, Final residual = 1.84738e-09, No Iterations 2
DILUPBiCGStab:  Solving for k, Initial residual = 0.00724209, Final residual = 1.03809e-09, No Iterations 3

ExecutionTime = 3.88 s  ClockTime = 4 s

    Overall     = 0.001473, 0.01
Time = 280

diagonal:  Solving for rho, Initial residual = 0, Final residual = 0, No Iterations 0

Execution time for mesh.update() = 0 s

DILUPBiCGStab:  Solving for Ux, Initial residual = 0.00590674, Final residual = 6.40797e-09, No Iterations 3
DILUPBiCGStab:  Solving for Uy, Initial residual = 0.00789537, Final residual = 8.60406e-09, No Iterations 3
GAMGPCG:  Solving for G, Initial residual = 0.203966, Final residual = 3.36598e-05, No Iterations 6
DILUPBiCGStab:  Solving for O2, Initial residual = 0.00325563, Final residual = 3.09443e-09, No Iterations 3
DILUPBiCGStab:  Solving for H2O, Initial residual = 0.00325605, Final residual = 3.09451e-09, No Iterations 3
DILUPBiCGStab:  Solving for CH4, Initial residual = 0, Final residual = 0, No Iterations 0
DILUPBiCGStab:  Solving for CO2, Initial residual = 0.00325605, Final residual = 3.09451e-09, No Iterations 3
DILUPBiCGStab:  Solving for h, Initial residual = 0.00387054, Final residual = 3.24099e-09, No Iterations 3
min/max(T) = 299.421, 1044.98
GAMGPCG:  Solving for p_rgh, Initial residual = 0.0201695, Final residual = 6.15288e-07, No Iterations 4
diagonal:  Solving for rho, Initial residual = 0, Final residual = 0, No Iterations 0
time step continuity errors : sum local = 3.42173e-08, global = -1.28507e-09, cumulative = -2.80564e-07
GAMGPCG:  Solving for p_rgh, Initial residual = 0.00249698, Final residual = 1.52822e-07, No Iterations 4
diagonal:  Solving for rho, Initial residual = 0, Final residual = 0, No Iterations 0
time step continuity errors : sum local = 8.30358e-09, global = 6.65648e-10, cumulative = -2.79899e-07
DILUPBiCGStab:  Solving for omega, Initial residual = 0.000121489, Final residual = 1.84766e-09, No Iterations 2
DILUPBiCGStab:  Solving for k, Initial residual = 0.00728142, Final residual = 7.76375e-09, No Iterations 3

ExecutionTime = 4.13 s  ClockTime = 4 s

    Overall     = 0.00146333, 0.01
Time = 281

diagonal:  Solving for rho, Initial residual = 0, Final residual = 0, No Iterations 0

Execution time for mesh.update() = 0 s

DILUPBiCGStab:  Solving for Ux, Initial residual = 0.00592183, Final residual = 5.77526e-09, No Iterations 3
DILUPBiCGStab:  Solving for Uy, Initial residual = 0.00786736, Final residual = 8.80218e-09, No Iterations 3
DILUPBiCGStab:  Solving for O2, Initial residual = 0.00326279, Final residual = 2.98584e-09, No Iterations 3
DILUPBiCGStab:  Solving for H2O, Initial residual = 0.00326323, Final residual = 2.98591e-09, No Iterations 3
DILUPBiCGStab:  Solving for CH4, Initial residual = 0, Final residual = 0, No Iterations 0
DILUPBiCGStab:  Solving for CO2, Initial residual = 0.00326323, Final residual = 2.98591e-09, No Iterations 3
DILUPBiCGStab:  Solving for h, Initial residual = 0.00389037, Final residual = 3.16371e-09, No Iterations 3
min/max(T) = 299.436, 1044.98
GAMGPCG:  Solving for p_rgh, Initial residual = 0.0204382, Final residual = 6.61424e-07, No Iterations 4
diagonal:  Solving for rho, Initial residual = 0, Final residual = 0, No Iterations 0
time step continuity errors : sum local = 3.6384e-08, global = -5.5349e-11, cumulative = -2.79954e-07
GAMGPCG:  Solving for p_rgh, Initial residual = 0.00268323, Final residual = 1.72632e-07, No Iterations 4
diagonal:  Solving for rho, Initial residual = 0, Final residual = 0, No Iterations 0
time step continuity errors : sum local = 9.3366e-09, global = 9.46087e-10, cumulative = -2.79008e-07
DILUPBiCGStab:  Solving for omega, Initial residual = 0.000122941, Final residual = 1.74843e-09, No Iterations 2
DILUPBiCGStab:  Solving for k, Initial residual = 0.00732627, Final residual = 7.06238e-09, No Iterations 3

ExecutionTime = 4.25 s  ClockTime = 4 s

    Overall     = 0.00145687, 0.01
Time = 282

diagonal:  Solving for rho, Initial residual = 0, Final residual = 0, No Iterations 0

Execution time for mesh.update() = 0 s

DILUPBiCGStab:  Solving for Ux, Initial residual = 0.00593744, Final residual = 5.75456e-09, No Iterations 3
DILUPBiCGStab:  Solving for Uy, Initial residual = 0.00785128, Final residual = 8.10222e-09, No Iterations 3
DILUPBiCGStab:  Solving for O2, Initial residual = 0.00326351, Final residual = 3.11185e-09, No Iterations 3
DILUPBiCGStab:  Solving for H2O, Initial residual = 0.00326398, Final residual = 3.11185e-09, No Iterations 3
DILUPBiCGStab:  Solving for CH4, Initial residual = 0, Final residual = 0, No Iterations 0
DILUPBiCGStab:  Solving for CO2, Initial residual = 0.00326398, Final residual = 3.11185e-09, No Iterations 3
DILUPBiCGStab:  Solving for h, Initial residual = 0.00389125, Final residual = 3.20386e-09, No Iterations 3
min/max(T) = 299.408, 1044.98
GAMGPCG:  Solving for p_rgh, Initial residual = 0.0203828, Final residual = 6.44432e-07, No Iterations 4
diagonal:  Solving for rho, Initial residual = 0, Final residual = 0, No Iterations 0
time step continuity errors : sum local = 3.57436e-08, global = -1.04357e-10, cumulative = -2.79112e-07
GAMGPCG:  Solving for p_rgh, Initial residual = 0.00253452, Final residual = 1.50234e-07, No Iterations 4
diagonal:  Solving for rho, Initial residual = 0, Final residual = 0, No Iterations 0
time step continuity errors : sum local = 8.05974e-09, global = 7.8009e-10, cumulative = -2.78332e-07
DILUPBiCGStab:  Solving for omega, Initial residual = 0.000123623, Final residual = 1.77233e-09, No Iterations 2
DILUPBiCGStab:  Solving for k, Initial residual = 0.00736567, Final residual = 5.0769e-09, No Iterations 3

ExecutionTime = 4.36 s  ClockTime = 5 s

    Overall     = 0.00144919, 0.01
Time = 283

diagonal:  Solving for rho, Initial residual = 0, Final residual = 0, No Iterations 0

Execution time for mesh.update() = 0 s

DILUPBiCGStab:  Solving for Ux, Initial residual = 0.00594278, Final residual = 5.36541e-09, No Iterations 3
DILUPBiCGStab:  Solving for Uy, Initial residual = 0.00782404, Final residual = 7.22321e-09, No Iterations 3
DILUPBiCGStab:  Solving for O2, Initial residual = 0.00327705, Final residual = 2.8555e-09, No Iterations 3
DILUPBiCGStab:  Solving for H2O, Initial residual = 0.00327751, Final residual = 2.8555e-09, No Iterations 3
DILUPBiCGStab:  Solving for CH4, Initial residual = 0, Final residual = 0, No Iterations 0
DILUPBiCGStab:  Solving for CO2, Initial residual = 0.00327751, Final residual = 2.8555e-09, No Iterations 3
DILUPBiCGStab:  Solving for h, Initial residual = 0.00391457, Final residual = 2.9146e-09, No Iterations 3
min/max(T) = 299.428, 1044.98
GAMGPCG:  Solving for p_rgh, Initial residual = 0.021061, Final residual = 6.33103e-07, No Iterations 4
diagonal:  Solving for rho, Initial residual = 0, Final residual = 0, No Iterations 0
time step continuity errors : sum local = 3.47416e-08, global = 2.95443e-10, cumulative = -2.78037e-07
GAMGPCG:  Solving for p_rgh, Initial residual = 0.00262675, Final residual = 1.58232e-07, No Iterations 4
diagonal:  Solving for rho, Initial residual = 0, Final residual = 0, No Iterations 0
time step continuity errors : sum local = 8.46256e-09, global = 9.50325e-10, cumulative = -2.77086e-07
DILUPBiCGStab:  Solving for omega, Initial residual = 0.000123981, Final residual = 1.7274e-09, No Iterations 2
DILUPBiCGStab:  Solving for k, Initial residual = 0.00740707, Final residual = 4.60545e-09, No Iterations 3

ExecutionTime = 4.48 s  ClockTime = 5 s

    Overall     = 0.00144445, 0.01
Time = 284

diagonal:  Solving for rho, Initial residual = 0, Final residual = 0, No Iterations 0

Execution time for mesh.update() = 0 s

DILUPBiCGStab:  Solving for Ux, Initial residual = 0.00596447, Final residual = 5.3382e-09, No Iterations 3
DILUPBiCGStab:  Solving for Uy, Initial residual = 0.00781658, Final residual = 6.94071e-09, No Iterations 3
DILUPBiCGStab:  Solving for O2, Initial residual = 0.0032791, Final residual = 2.78839e-09, No Iterations 3
DILUPBiCGStab:  Solving for H2O, Initial residual = 0.00327958, Final residual = 2.78839e-09, No Iterations 3
DILUPBiCGStab:  Solving for CH4, Initial residual = 0, Final residual = 0, No Iterations 0
DILUPBiCGStab:  Solving for CO2, Initial residual = 0.00327958, Final residual = 2.78839e-09, No Iterations 3
DILUPBiCGStab:  Solving for h, Initial residual = 0.00392011, Final residual = 2.85329e-09, No Iterations 3
min/max(T) = 299.403, 1044.98
GAMGPCG:  Solving for p_rgh, Initial residual = 0.0203519, Final residual = 6.55591e-07, No Iterations 4
diagonal:  Solving for rho, Initial residual = 0, Final residual = 0, No Iterations 0
time step continuity errors : sum local = 3.63285e-08, global = 3.82026e-10, cumulative = -2.76704e-07
GAMGPCG:  Solving for p_rgh, Initial residual = 0.00263707, Final residual = 2.02212e-07, No Iterations 4
diagonal:  Solving for rho, Initial residual = 0, Final residual = 0, No Iterations 0
time step continuity errors : sum local = 1.09787e-08, global = 7.70002e-10, cumulative = -2.75934e-07
DILUPBiCGStab:  Solving for omega, Initial residual = 0.000124156, Final residual = 1.74374e-09, No Iterations 2
DILUPBiCGStab:  Solving for k, Initial residual = 0.00743438, Final residual = 4.07462e-09, No Iterations 3

ExecutionTime = 4.59 s  ClockTime = 5 s

    Overall     = 0.00143582, 0.01
Time = 285

diagonal:  Solving for rho, Initial residual = 0, Final residual = 0, No Iterations 0

Execution time for mesh.update() = 0 s

DILUPBiCGStab:  Solving for Ux, Initial residual = 0.00596308, Final residual = 4.70969e-09, No Iterations 3
DILUPBiCGStab:  Solving for Uy, Initial residual = 0.00778777, Final residual = 6.04629e-09, No Iterations 3
DILUPBiCGStab:  Solving for O2, Initial residual = 0.00328845, Final residual = 2.58122e-09, No Iterations 3
DILUPBiCGStab:  Solving for H2O, Initial residual = 0.00328892, Final residual = 2.58119e-09, No Iterations 3
DILUPBiCGStab:  Solving for CH4, Initial residual = 0, Final residual = 0, No Iterations 0
DILUPBiCGStab:  Solving for CO2, Initial residual = 0.00328892, Final residual = 2.58119e-09, No Iterations 3
DILUPBiCGStab:  Solving for h, Initial residual = 0.00393896, Final residual = 2.70669e-09, No Iterations 3
min/max(T) = 299.422, 1044.98
GAMGPCG:  Solving for p_rgh, Initial residual = 0.0205014, Final residual = 6.00025e-07, No Iterations 4
diagonal:  Solving for rho, Initial residual = 0, Final residual = 0, No Iterations 0
time step continuity errors : sum local = 3.2936e-08, global = -2.78433e-10, cumulative = -2.76213e-07
GAMGPCG:  Solving for p_rgh, Initial residual = 0.00271569, Final residual = 2.06975e-07, No Iterations 4
diagonal:  Solving for rho, Initial residual = 0, Final residual = 0, No Iterations 0
time step continuity errors : sum local = 1.11616e-08, global = 9.68819e-10, cumulative = -2.75244e-07
DILUPBiCGStab:  Solving for omega, Initial residual = 0.000124607, Final residual = 1.90457e-09, No Iterations 2
DILUPBiCGStab:  Solving for k, Initial residual = 0.00746867, Final residual = 3.60486e-09, No Iterations 3

ExecutionTime = 4.71 s  ClockTime = 5 s

    Overall     = 0.00143146, 0.01
Time = 286

diagonal:  Solving for rho, Initial residual = 0, Final residual = 0, No Iterations 0

Execution time for mesh.update() = 0 s

DILUPBiCGStab:  Solving for Ux, Initial residual = 0.00599035, Final residual = 4.98684e-09, No Iterations 3
DILUPBiCGStab:  Solving for Uy, Initial residual = 0.00778301, Final residual = 6.46511e-09, No Iterations 3
DILUPBiCGStab:  Solving for O2, Initial residual = 0.00329074, Final residual = 2.61035e-09, No Iterations 3
DILUPBiCGStab:  Solving for H2O, Initial residual = 0.00329123, Final residual = 2.61027e-09, No Iterations 3
DILUPBiCGStab:  Solving for CH4, Initial residual = 0, Final residual = 0, No Iterations 0
DILUPBiCGStab:  Solving for CO2, Initial residual = 0.00329123, Final residual = 2.61026e-09, No Iterations 3
DILUPBiCGStab:  Solving for h, Initial residual = 0.00394589, Final residual = 2.63172e-09, No Iterations 3
min/max(T) = 299.398, 1044.98
GAMGPCG:  Solving for p_rgh, Initial residual = 0.0201453, Final residual = 5.62914e-07, No Iterations 4
diagonal:  Solving for rho, Initial residual = 0, Final residual = 0, No Iterations 0
time step continuity errors : sum local = 3.06804e-08, global = 1.14957e-09, cumulative = -2.74094e-07
GAMGPCG:  Solving for p_rgh, Initial residual = 0.00263969, Final residual = 2.1128e-07, No Iterations 4
diagonal:  Solving for rho, Initial residual = 0, Final residual = 0, No Iterations 0
time step continuity errors : sum local = 1.14064e-08, global = 7.13957e-10, cumulative = -2.7338e-07
DILUPBiCGStab:  Solving for omega, Initial residual = 0.00012466, Final residual = 1.7428e-09, No Iterations 2
DILUPBiCGStab:  Solving for k, Initial residual = 0.00749039, Final residual = 3.4942e-09, No Iterations 3

ExecutionTime = 4.82 s  ClockTime = 5 s

    Overall     = 0.00142224, 0.01
Time = 287

diagonal:  Solving for rho, Initial residual = 0, Final residual = 0, No Iterations 0

Execution time for mesh.update() = 0 s

DILUPBiCGStab:  Solving for Ux, Initial residual = 0.00600722, Final residual = 4.58371e-09, No Iterations 3
DILUPBiCGStab:  Solving for Uy, Initial residual = 0.00774283, Final residual = 5.42789e-09, No Iterations 3
DILUPBiCGStab:  Solving for O2, Initial residual = 0.00330028, Final residual = 2.46959e-09, No Iterations 3
DILUPBiCGStab:  Solving for H2O, Initial residual = 0.00330073, Final residual = 2.46947e-09, No Iterations 3
DILUPBiCGStab:  Solving for CH4, Initial residual = 0, Final residual = 0, No Iterations 0
DILUPBiCGStab:  Solving for CO2, Initial residual = 0.00330073, Final residual = 2.46947e-09, No Iterations 3
DILUPBiCGStab:  Solving for h, Initial residual = 0.00396081, Final residual = 2.53616e-09, No Iterations 3
min/max(T) = 299.411, 1044.98
GAMGPCG:  Solving for p_rgh, Initial residual = 0.0202039, Final residual = 5.48552e-07, No Iterations 4
diagonal:  Solving for rho, Initial residual = 0, Final residual = 0, No Iterations 0
time step continuity errors : sum local = 3.01253e-08, global = 1.58496e-09, cumulative = -2.71795e-07
GAMGPCG:  Solving for p_rgh, Initial residual = 0.00260554, Final residual = 1.98566e-07, No Iterations 4
diagonal:  Solving for rho, Initial residual = 0, Final residual = 0, No Iterations 0
time step continuity errors : sum local = 1.06876e-08, global = 9.8107e-10, cumulative = -2.70814e-07
DILUPBiCGStab:  Solving for omega, Initial residual = 0.000124473, Final residual = 1.76999e-09, No Iterations 2
DILUPBiCGStab:  Solving for k, Initial residual = 0.00752901, Final residual = 3.29162e-09, No Iterations 3

ExecutionTime = 4.94 s  ClockTime = 5 s

    Overall     = 0.00141785, 0.01
Time = 288

diagonal:  Solving for rho, Initial residual = 0, Final residual = 0, No Iterations 0

Execution time for mesh.update() = 0 s

DILUPBiCGStab:  Solving for Ux, Initial residual = 0.00601084, Final residual = 4.46712e-09, No Iterations 3
DILUPBiCGStab:  Solving for Uy, Initial residual = 0.00771263, Final residual = 5.76392e-09, No Iterations 3
DILUPBiCGStab:  Solving for O2, Initial residual = 0.0032975, Final residual = 2.30644e-09, No Iterations 3
DILUPBiCGStab:  Solving for H2O, Initial residual = 0.00329799, Final residual = 2.30638e-09, No Iterations 3
DILUPBiCGStab:  Solving for CH4, Initial residual = 0, Final residual = 0, No Iterations 0
DILUPBiCGStab:  Solving for CO2, Initial residual = 0.003298, Final residual = 2.30638e-09, No Iterations 3
DILUPBiCGStab:  Solving for h, Initial residual = 0.00395833, Final residual = 2.34985e-09, No Iterations 3
min/max(T) = 299.386, 1044.98
GAMGPCG:  Solving for p_rgh, Initial residual = 0.0199554, Final residual = 5.56326e-07, No Iterations 4
diagonal:  Solving for rho, Initial residual = 0, Final residual = 0, No Iterations 0
time step continuity errors : sum local = 3.00704e-08, global = 1.01785e-09, cumulative = -2.69797e-07
GAMGPCG:  Solving for p_rgh, Initial residual = 0.00268966, Final residual = 2.45622e-07, No Iterations 4
diagonal:  Solving for rho, Initial residual = 0, Final residual = 0, No Iterations 0
time step continuity errors : sum local = 1.31362e-08, global = 4.82402e-10, cumulative = -2.69314e-07
DILUPBiCGStab:  Solving for omega, Initial residual = 0.000124652, Final residual = 1.685e-09, No Iterations 2
DILUPBiCGStab:  Solving for k, Initial residual = 0.00756633, Final residual = 3.20262e-09, No Iterations 3

ExecutionTime = 5.05 s  ClockTime = 5 s

    Overall     = 0.00140612, 0.01
Time = 289

diagonal:  Solving for rho, Initial residual = 0, Final residual = 0, No Iterations 0

Execution time for mesh.update() = 0 s

DILUPBiCGStab:  Solving for Ux, Initial residual = 0.00602889, Final residual = 4.33904e-09, No Iterations 3
DILUPBiCGStab:  Solving for Uy, Initial residual = 0.00767914, Final residual = 5.61069e-09, No Iterations 3
DILUPBiCGStab:  Solving for O2, Initial residual = 0.00330803, Final residual = 2.20659e-09, No Iterations 3
DILUPBiCGStab:  Solving for H2O, Initial residual = 0.00330854, Final residual = 2.20649e-09, No Iterations 3
DILUPBiCGStab:  Solving for CH4, Initial residual = 0, Final residual = 0, No Iterations 0
DILUPBiCGStab:  Solving for CO2, Initial residual = 0.00330854, Final residual = 2.20649e-09, No Iterations 3
DILUPBiCGStab:  Solving for h, Initial residual = 0.00397617, Final residual = 2.25631e-09, No Iterations 3
min/max(T) = 299.395, 1044.98
GAMGPCG:  Solving for p_rgh, Initial residual = 0.0201318, Final residual = 5.92865e-07, No Iterations 4
diagonal:  Solving for rho, Initial residual = 0, Final residual = 0, No Iterations 0
time step continuity errors : sum local = 3.22488e-08, global = -1.335e-10, cumulative = -2.69448e-07
GAMGPCG:  Solving for p_rgh, Initial residual = 0.00265231, Final residual = 2.26948e-07, No Iterations 4
diagonal:  Solving for rho, Initial residual = 0, Final residual = 0, No Iterations 0
time step continuity errors : sum local = 1.2061e-08, global = 9.59792e-10, cumulative = -2.68488e-07
DILUPBiCGStab:  Solving for omega, Initial residual = 0.000125556, Final residual = 1.70104e-09, No Iterations 2
DILUPBiCGStab:  Solving for k, Initial residual = 0.00760688, Final residual = 3.15167e-09, No Iterations 3

ExecutionTime = 5.17 s  ClockTime = 5 s

    Overall     = 0.00140334, 0.01
Time = 290

diagonal:  Solving for rho, Initial residual = 0, Final residual = 0, No Iterations 0

Execution time for mesh.update() = 0 s

DILUPBiCGStab:  Solving for Ux, Initial residual = 0.0060323, Final residual = 3.77729e-09, No Iterations 3
DILUPBiCGStab:  Solving for Uy, Initial residual = 0.00765371, Final residual = 5.5141e-09, No Iterations 3
GAMGPCG:  Solving for G, Initial residual = 0.215901, Final residual = 2.48573e-05, No Iterations 6
DILUPBiCGStab:  Solving for O2, Initial residual = 0.00330301, Final residual = 2.1304e-09, No Iterations 3
DILUPBiCGStab:  Solving for H2O, Initial residual = 0.00330353, Final residual = 2.13036e-09, No Iterations 3
DILUPBiCGStab:  Solving for CH4, Initial residual = 0, Final residual = 0, No Iterations 0
DILUPBiCGStab:  Solving for CO2, Initial residual = 0.00330353, Final residual = 2.13036e-09, No Iterations 3
DILUPBiCGStab:  Solving for h, Initial residual = 0.00397033, Final residual = 2.1977e-09, No Iterations 3
min/max(T) = 299.377, 1044.98
GAMGPCG:  Solving for p_rgh, Initial residual = 0.020245, Final residual = 5.91957e-07, No Iterations 4
diagonal:  Solving for rho, Initial residual = 0, Final residual = 0, No Iterations 0
time step continuity errors : sum local = 3.20797e-08, global = -1.41209e-09, cumulative = -2.699e-07
GAMGPCG:  Solving for p_rgh, Initial residual = 0.0025893, Final residual = 2.37719e-07, No Iterations 4
diagonal:  Solving for rho, Initial residual = 0, Final residual = 0, No Iterations 0
time step continuity errors : sum local = 1.25109e-08, global = 5.47538e-10, cumulative = -2.69352e-07
DILUPBiCGStab:  Solving for omega, Initial residual = 0.00012447, Final residual = 1.52147e-09, No Iterations 2
DILUPBiCGStab:  Solving for k, Initial residual = 0.0076246, Final residual = 3.46119e-09, No Iterations 3

ExecutionTime = 5.42 s  ClockTime = 6 s

    Overall     = 0.0013934, 0.01
Time = 291

diagonal:  Solving for rho, Initial residual = 0, Final residual = 0, No Iterations 0

Execution time for mesh.update() = 0 s

DILUPBiCGStab:  Solving for Ux, Initial residual = 0.00605026, Final residual = 3.56074e-09, No Iterations 3
DILUPBiCGStab:  Solving for Uy, Initial residual = 0.00764658, Final residual = 5.92192e-09, No Iterations 3
DILUPBiCGStab:  Solving for O2, Initial residual = 0.00331932, Final residual = 1.97643e-09, No Iterations 3
DILUPBiCGStab:  Solving for H2O, Initial residual = 0.00331983, Final residual = 1.97636e-09, No Iterations 3
DILUPBiCGStab:  Solving for CH4, Initial residual = 0, Final residual = 0, No Iterations 0
DILUPBiCGStab:  Solving for CO2, Initial residual = 0.00331983, Final residual = 1.97636e-09, No Iterations 3
DILUPBiCGStab:  Solving for h, Initial residual = 0.00399116, Final residual = 2.01328e-09, No Iterations 3
min/max(T) = 299.389, 1044.98
GAMGPCG:  Solving for p_rgh, Initial residual = 0.0207626, Final residual = 6.32184e-07, No Iterations 4
diagonal:  Solving for rho, Initial residual = 0, Final residual = 0, No Iterations 0
time step continuity errors : sum local = 3.46922e-08, global = 2.1163e-10, cumulative = -2.69141e-07
GAMGPCG:  Solving for p_rgh, Initial residual = 0.00267168, Final residual = 2.35158e-07, No Iterations 4
diagonal:  Solving for rho, Initial residual = 0, Final residual = 0, No Iterations 0
time step continuity errors : sum local = 1.24576e-08, global = 3.5975e-10, cumulative = -2.68781e-07
DILUPBiCGStab:  Solving for omega, Initial residual = 0.000124706, Final residual = 1.48333e-09, No Iterations 2
DILUPBiCGStab:  Solving for k, Initial residual = 0.00765113, Final residual = 2.8852e-09, No Iterations 3

ExecutionTime = 5.53 s  ClockTime = 6 s

    Overall     = 0.0013918, 0.01
Time = 292

diagonal:  Solving for rho, Initial residual = 0, Final residual = 0, No Iterations 0

Execution time for mesh.update() = 0.01 s

DILUPBiCGStab:  Solving for Ux, Initial residual = 0.00607228, Final residual = 3.50263e-09, No Iterations 3
DILUPBiCGStab:  Solving for Uy, Initial residual = 0.00761707, Final residual = 5.55873e-09, No Iterations 3
DILUPBiCGStab:  Solving for O2, Initial residual = 0.00331702, Final residual = 2.04333e-09, No Iterations 3
DILUPBiCGStab:  Solving for H2O, Initial residual = 0.00331753, Final residual = 2.04334e-09, No Iterations 3
DILUPBiCGStab:  Solving for CH4, Initial residual = 0, Final residual = 0, No Iterations 0
DILUPBiCGStab:  Solving for CO2, Initial residual = 0.00331753, Final residual = 2.04334e-09, No Iterations 3
DILUPBiCGStab:  Solving for h, Initial residual = 0.0039858, Final residual = 2.03843e-09, No Iterations 3
min/max(T) = 299.372, 1044.98
GAMGPCG:  Solving for p_rgh, Initial residual = 0.020632, Final residual = 7.11681e-07, No Iterations 4
diagonal:  Solving for rho, Initial residual = 0, Final residual = 0, No Iterations 0
time step continuity errors : sum local = 3.87885e-08, global = -8.1625e-10, cumulative = -2.69597e-07
GAMGPCG:  Solving for p_rgh, Initial residual = 0.00266507, Final residual = 2.4519e-07, No Iterations 4
diagonal:  Solving for rho, Initial residual = 0, Final residual = 0, No Iterations 0
time step continuity errors : sum local = 1.28736e-08, global = 3.9788e-10, cumulative = -2.69199e-07
DILUPBiCGStab:  Solving for omega, Initial residual = 0.00012376, Final residual = 1.421e-09, No Iterations 2
DILUPBiCGStab:  Solving for k, Initial residual = 0.00767215, Final residual = 2.717e-09, No Iterations 3

ExecutionTime = 5.65 s  ClockTime = 6 s

    Overall     = 0.00138228, 0.01
Time = 293

[...]

Execution time for mesh.update() = 0 s

DILUPBiCGStab:  Solving for Ux, Initial residual = 0.00484647, Final residual = 9.53416e-10, No Iterations 3
DILUPBiCGStab:  Solving for Uy, Initial residual = 0.00463789, Final residual = 5.72943e-09, No Iterations 3
GAMGPCG:  Solving for G, Initial residual = 0.241105, Final residual = 9.9163e-05, No Iterations 4
DILUPBiCGStab:  Solving for O2, Initial residual = 0.00200465, Final residual = 1.89169e-09, No Iterations 3
DILUPBiCGStab:  Solving for H2O, Initial residual = 0.00200465, Final residual = 1.8917e-09, No Iterations 3
DILUPBiCGStab:  Solving for CH4, Initial residual = 0, Final residual = 0, No Iterations 0
DILUPBiCGStab:  Solving for CO2, Initial residual = 0.00200465, Final residual = 1.8917e-09, No Iterations 3
DILUPBiCGStab:  Solving for h, Initial residual = 0.00231568, Final residual = 2.12174e-09, No Iterations 3
min/max(T) = 300, 1044.98
GAMGPCG:  Solving for p_rgh, Initial residual = 0.01837, Final residual = 1.76067e-07, No Iterations 5
diagonal:  Solving for rho, Initial residual = 0, Final residual = 0, No Iterations 0
time step continuity errors : sum local = 6.83089e-09, global = -7.13224e-10, cumulative = 1.92713e-06
GAMGPCG:  Solving for p_rgh, Initial residual = 0.00357336, Final residual = 4.50343e-07, No Iterations 4
diagonal:  Solving for rho, Initial residual = 0, Final residual = 0, No Iterations 0
time step continuity errors : sum local = 1.67639e-08, global = 1.04359e-09, cumulative = 1.92817e-06
DILUPBiCGStab:  Solving for omega, Initial residual = 9.03467e-05, Final residual = 1.25754e-09, No Iterations 2
DILUPBiCGStab:  Solving for k, Initial residual = 0.00391057, Final residual = 2.84343e-09, No Iterations 3

ExecutionTime = 290.1 s  ClockTime = 290 s

    Overall     = 0.00126482, 0.01
Time = 2491

diagonal:  Solving for rho, Initial residual = 0, Final residual = 0, No Iterations 0

Execution time for mesh.update() = 0 s

DILUPBiCGStab:  Solving for Ux, Initial residual = 0.00482457, Final residual = 7.95873e-09, No Iterations 3
DILUPBiCGStab:  Solving for Uy, Initial residual = 0.00464825, Final residual = 6.10069e-09, No Iterations 3
DILUPBiCGStab:  Solving for O2, Initial residual = 0.00198795, Final residual = 2.09255e-09, No Iterations 3
DILUPBiCGStab:  Solving for H2O, Initial residual = 0.00198795, Final residual = 2.09255e-09, No Iterations 3
DILUPBiCGStab:  Solving for CH4, Initial residual = 0, Final residual = 0, No Iterations 0
DILUPBiCGStab:  Solving for CO2, Initial residual = 0.00198795, Final residual = 2.09255e-09, No Iterations 3
DILUPBiCGStab:  Solving for h, Initial residual = 0.00229369, Final residual = 2.14398e-09, No Iterations 3
min/max(T) = 300, 1044.98
GAMGPCG:  Solving for p_rgh, Initial residual = 0.0179312, Final residual = 1.78149e-07, No Iterations 5
diagonal:  Solving for rho, Initial residual = 0, Final residual = 0, No Iterations 0
time step continuity errors : sum local = 6.8383e-09, global = -4.72256e-10, cumulative = 1.9277e-06
GAMGPCG:  Solving for p_rgh, Initial residual = 0.00340207, Final residual = 4.82997e-07, No Iterations 4
diagonal:  Solving for rho, Initial residual = 0, Final residual = 0, No Iterations 0
time step continuity errors : sum local = 1.77357e-08, global = 7.18241e-10, cumulative = 1.92842e-06
DILUPBiCGStab:  Solving for omega, Initial residual = 8.84324e-05, Final residual = 1.27527e-09, No Iterations 2
DILUPBiCGStab:  Solving for k, Initial residual = 0.00388516, Final residual = 2.79998e-09, No Iterations 3

ExecutionTime = 290.22 s  ClockTime = 290 s

    Overall     = 0.00125897, 0.01
Time = 2492

diagonal:  Solving for rho, Initial residual = 0, Final residual = 0, No Iterations 0

Execution time for mesh.update() = 0 s

DILUPBiCGStab:  Solving for Ux, Initial residual = 0.00478018, Final residual = 5.36223e-09, No Iterations 3
DILUPBiCGStab:  Solving for Uy, Initial residual = 0.00461051, Final residual = 6.18251e-09, No Iterations 3
DILUPBiCGStab:  Solving for O2, Initial residual = 0.00198134, Final residual = 2.25871e-09, No Iterations 3
DILUPBiCGStab:  Solving for H2O, Initial residual = 0.00198134, Final residual = 2.25871e-09, No Iterations 3
DILUPBiCGStab:  Solving for CH4, Initial residual = 0, Final residual = 0, No Iterations 0
DILUPBiCGStab:  Solving for CO2, Initial residual = 0.00198134, Final residual = 2.25871e-09, No Iterations 3
DILUPBiCGStab:  Solving for h, Initial residual = 0.00228879, Final residual = 2.27484e-09, No Iterations 3
min/max(T) = 300, 1044.98
GAMGPCG:  Solving for p_rgh, Initial residual = 0.0185226, Final residual = 1.76336e-07, No Iterations 5
diagonal:  Solving for rho, Initial residual = 0, Final residual = 0, No Iterations 0
time step continuity errors : sum local = 6.77124e-09, global = -3.08773e-10, cumulative = 1.92811e-06
GAMGPCG:  Solving for p_rgh, Initial residual = 0.00343509, Final residual = 4.50167e-07, No Iterations 4
diagonal:  Solving for rho, Initial residual = 0, Final residual = 0, No Iterations 0
time step continuity errors : sum local = 1.66106e-08, global = 7.11378e-10, cumulative = 1.92882e-06
DILUPBiCGStab:  Solving for omega, Initial residual = 8.79664e-05, Final residual = 1.22859e-09, No Iterations 2
DILUPBiCGStab:  Solving for k, Initial residual = 0.00386051, Final residual = 2.15571e-09, No Iterations 3

ExecutionTime = 290.33 s  ClockTime = 291 s

    Overall     = 0.00125863, 0.01
Time = 2493

diagonal:  Solving for rho, Initial residual = 0, Final residual = 0, No Iterations 0

Execution time for mesh.update() = 0 s

DILUPBiCGStab:  Solving for Ux, Initial residual = 0.00476403, Final residual = 5.37379e-09, No Iterations 3
DILUPBiCGStab:  Solving for Uy, Initial residual = 0.00460773, Final residual = 8.40051e-09, No Iterations 3
DILUPBiCGStab:  Solving for O2, Initial residual = 0.00196883, Final residual = 2.46912e-09, No Iterations 3
DILUPBiCGStab:  Solving for H2O, Initial residual = 0.00196883, Final residual = 2.46913e-09, No Iterations 3
DILUPBiCGStab:  Solving for CH4, Initial residual = 0, Final residual = 0, No Iterations 0
DILUPBiCGStab:  Solving for CO2, Initial residual = 0.00196883, Final residual = 2.46913e-09, No Iterations 3
DILUPBiCGStab:  Solving for h, Initial residual = 0.00227477, Final residual = 2.47165e-09, No Iterations 3
min/max(T) = 300, 1044.98
GAMGPCG:  Solving for p_rgh, Initial residual = 0.0184956, Final residual = 1.75132e-07, No Iterations 5
diagonal:  Solving for rho, Initial residual = 0, Final residual = 0, No Iterations 0
time step continuity errors : sum local = 6.75275e-09, global = -2.08401e-11, cumulative = 1.9288e-06
GAMGPCG:  Solving for p_rgh, Initial residual = 0.00351341, Final residual = 4.84624e-07, No Iterations 4
diagonal:  Solving for rho, Initial residual = 0, Final residual = 0, No Iterations 0
time step continuity errors : sum local = 1.80087e-08, global = 1.13964e-09, cumulative = 1.92994e-06
DILUPBiCGStab:  Solving for omega, Initial residual = 8.92355e-05, Final residual = 1.20206e-09, No Iterations 2
DILUPBiCGStab:  Solving for k, Initial residual = 0.00385886, Final residual = 2.10755e-09, No Iterations 3

ExecutionTime = 290.46 s  ClockTime = 291 s

    Overall     = 0.00125197, 0.01
Time = 2494

diagonal:  Solving for rho, Initial residual = 0, Final residual = 0, No Iterations 0

Execution time for mesh.update() = 0 s

DILUPBiCGStab:  Solving for Ux, Initial residual = 0.00475975, Final residual = 5.35944e-09, No Iterations 3
DILUPBiCGStab:  Solving for Uy, Initial residual = 0.00462575, Final residual = 8.30216e-09, No Iterations 3
DILUPBiCGStab:  Solving for O2, Initial residual = 0.00195791, Final residual = 3.6583e-09, No Iterations 3
DILUPBiCGStab:  Solving for H2O, Initial residual = 0.00195791, Final residual = 3.65832e-09, No Iterations 3
DILUPBiCGStab:  Solving for CH4, Initial residual = 0, Final residual = 0, No Iterations 0
DILUPBiCGStab:  Solving for CO2, Initial residual = 0.00195791, Final residual = 3.65832e-09, No Iterations 3
DILUPBiCGStab:  Solving for h, Initial residual = 0.00226022, Final residual = 2.50203e-09, No Iterations 3
min/max(T) = 300, 1044.98
GAMGPCG:  Solving for p_rgh, Initial residual = 0.0188453, Final residual = 1.55086e-07, No Iterations 5
diagonal:  Solving for rho, Initial residual = 0, Final residual = 0, No Iterations 0
time step continuity errors : sum local = 5.95591e-09, global = -4.75715e-10, cumulative = 1.92946e-06
GAMGPCG:  Solving for p_rgh, Initial residual = 0.00342351, Final residual = 5.75526e-07, No Iterations 4
diagonal:  Solving for rho, Initial residual = 0, Final residual = 0, No Iterations 0
time step continuity errors : sum local = 2.09909e-08, global = 5.21865e-10, cumulative = 1.92998e-06
DILUPBiCGStab:  Solving for omega, Initial residual = 8.98472e-05, Final residual = 1.24248e-09, No Iterations 2
DILUPBiCGStab:  Solving for k, Initial residual = 0.00383901, Final residual = 2.29514e-09, No Iterations 3

ExecutionTime = 290.57 s  ClockTime = 291 s

    Overall     = 0.00125202, 0.01
Time = 2495

diagonal:  Solving for rho, Initial residual = 0, Final residual = 0, No Iterations 0

Execution time for mesh.update() = 0.01 s

DILUPBiCGStab:  Solving for Ux, Initial residual = 0.00467697, Final residual = 5.47728e-09, No Iterations 3
DILUPBiCGStab:  Solving for Uy, Initial residual = 0.00462826, Final residual = 8.69016e-09, No Iterations 3
DILUPBiCGStab:  Solving for O2, Initial residual = 0.00194281, Final residual = 7.90617e-09, No Iterations 3
DILUPBiCGStab:  Solving for H2O, Initial residual = 0.00194281, Final residual = 7.90556e-09, No Iterations 3
DILUPBiCGStab:  Solving for CH4, Initial residual = 0, Final residual = 0, No Iterations 0
DILUPBiCGStab:  Solving for CO2, Initial residual = 0.00194281, Final residual = 7.90556e-09, No Iterations 3
DILUPBiCGStab:  Solving for h, Initial residual = 0.00224415, Final residual = 3.73116e-09, No Iterations 3
min/max(T) = 300, 1044.98
GAMGPCG:  Solving for p_rgh, Initial residual = 0.0186329, Final residual = 1.45985e-07, No Iterations 5
diagonal:  Solving for rho, Initial residual = 0, Final residual = 0, No Iterations 0
time step continuity errors : sum local = 5.68737e-09, global = -1.14088e-10, cumulative = 1.92987e-06
GAMGPCG:  Solving for p_rgh, Initial residual = 0.00339817, Final residual = 5.02727e-07, No Iterations 4
diagonal:  Solving for rho, Initial residual = 0, Final residual = 0, No Iterations 0
time step continuity errors : sum local = 1.8386e-08, global = 9.82412e-11, cumulative = 1.92997e-06
DILUPBiCGStab:  Solving for omega, Initial residual = 8.82819e-05, Final residual = 1.06391e-09, No Iterations 2
DILUPBiCGStab:  Solving for k, Initial residual = 0.00382014, Final residual = 3.03013e-09, No Iterations 3

ExecutionTime = 290.69 s  ClockTime = 291 s

    Overall     = 0.0012463, 0.01
Time = 2496

diagonal:  Solving for rho, Initial residual = 0, Final residual = 0, No Iterations 0

Execution time for mesh.update() = 0 s

DILUPBiCGStab:  Solving for Ux, Initial residual = 0.00464998, Final residual = 5.50236e-09, No Iterations 3
DILUPBiCGStab:  Solving for Uy, Initial residual = 0.00463888, Final residual = 6.46276e-09, No Iterations 3
DILUPBiCGStab:  Solving for O2, Initial residual = 0.00193294, Final residual = 7.56326e-09, No Iterations 3
DILUPBiCGStab:  Solving for H2O, Initial residual = 0.00193294, Final residual = 7.56324e-09, No Iterations 3
DILUPBiCGStab:  Solving for CH4, Initial residual = 0, Final residual = 0, No Iterations 0
DILUPBiCGStab:  Solving for CO2, Initial residual = 0.00193294, Final residual = 7.56324e-09, No Iterations 3
DILUPBiCGStab:  Solving for h, Initial residual = 0.00222701, Final residual = 4.11133e-09, No Iterations 3
min/max(T) = 300, 1044.98
GAMGPCG:  Solving for p_rgh, Initial residual = 0.0189642, Final residual = 1.45212e-07, No Iterations 5
diagonal:  Solving for rho, Initial residual = 0, Final residual = 0, No Iterations 0
time step continuity errors : sum local = 5.66093e-09, global = -1.11599e-11, cumulative = 1.92996e-06
GAMGPCG:  Solving for p_rgh, Initial residual = 0.00350551, Final residual = 5.28671e-07, No Iterations 4
diagonal:  Solving for rho, Initial residual = 0, Final residual = 0, No Iterations 0
time step continuity errors : sum local = 1.96169e-08, global = 2.58953e-10, cumulative = 1.93021e-06
DILUPBiCGStab:  Solving for omega, Initial residual = 8.91906e-05, Final residual = 1.01161e-09, No Iterations 2
DILUPBiCGStab:  Solving for k, Initial residual = 0.00379418, Final residual = 1.07658e-09, No Iterations 3

ExecutionTime = 290.81 s  ClockTime = 291 s

    Overall     = 0.00124667, 0.01
Time = 2497

diagonal:  Solving for rho, Initial residual = 0, Final residual = 0, No Iterations 0

Execution time for mesh.update() = 0 s

DILUPBiCGStab:  Solving for Ux, Initial residual = 0.00466495, Final residual = 6.41962e-09, No Iterations 3
DILUPBiCGStab:  Solving for Uy, Initial residual = 0.00463911, Final residual = 5.57845e-09, No Iterations 3
DILUPBiCGStab:  Solving for O2, Initial residual = 0.00192143, Final residual = 4.28417e-09, No Iterations 3
DILUPBiCGStab:  Solving for H2O, Initial residual = 0.00192143, Final residual = 4.28417e-09, No Iterations 3
DILUPBiCGStab:  Solving for CH4, Initial residual = 0, Final residual = 0, No Iterations 0
DILUPBiCGStab:  Solving for CO2, Initial residual = 0.00192143, Final residual = 4.28417e-09, No Iterations 3
DILUPBiCGStab:  Solving for h, Initial residual = 0.00221503, Final residual = 1.12918e-09, No Iterations 3
min/max(T) = 300, 1044.98
GAMGPCG:  Solving for p_rgh, Initial residual = 0.0191732, Final residual = 9.93443e-07, No Iterations 4
diagonal:  Solving for rho, Initial residual = 0, Final residual = 0, No Iterations 0
time step continuity errors : sum local = 3.62886e-08, global = -2.48298e-09, cumulative = 1.92773e-06
GAMGPCG:  Solving for p_rgh, Initial residual = 0.00336563, Final residual = 5.59886e-07, No Iterations 4
diagonal:  Solving for rho, Initial residual = 0, Final residual = 0, No Iterations 0
time step continuity errors : sum local = 2.05703e-08, global = 1.16247e-10, cumulative = 1.92785e-06
DILUPBiCGStab:  Solving for omega, Initial residual = 8.84123e-05, Final residual = 1.06673e-09, No Iterations 2
DILUPBiCGStab:  Solving for k, Initial residual = 0.00377659, Final residual = 3.4881e-09, No Iterations 3

ExecutionTime = 290.92 s  ClockTime = 291 s

    Overall     = 0.00124168, 0.01
Time = 2498

diagonal:  Solving for rho, Initial residual = 0, Final residual = 0, No Iterations 0

Execution time for mesh.update() = 0 s

DILUPBiCGStab:  Solving for Ux, Initial residual = 0.00466504, Final residual = 6.676e-09, No Iterations 3
DILUPBiCGStab:  Solving for Uy, Initial residual = 0.00466807, Final residual = 6.06184e-09, No Iterations 3
DILUPBiCGStab:  Solving for O2, Initial residual = 0.00191541, Final residual = 5.45913e-09, No Iterations 3
DILUPBiCGStab:  Solving for H2O, Initial residual = 0.00191542, Final residual = 5.45913e-09, No Iterations 3
DILUPBiCGStab:  Solving for CH4, Initial residual = 0, Final residual = 0, No Iterations 0
DILUPBiCGStab:  Solving for CO2, Initial residual = 0.00191542, Final residual = 5.45913e-09, No Iterations 3
DILUPBiCGStab:  Solving for h, Initial residual = 0.00220716, Final residual = 8.33163e-09, No Iterations 3
min/max(T) = 300, 1044.98
GAMGPCG:  Solving for p_rgh, Initial residual = 0.0192073, Final residual = 1.37567e-07, No Iterations 5
diagonal:  Solving for rho, Initial residual = 0, Final residual = 0, No Iterations 0
time step continuity errors : sum local = 5.38464e-09, global = -3.04312e-10, cumulative = 1.92754e-06
GAMGPCG:  Solving for p_rgh, Initial residual = 0.00353355, Final residual = 5.68809e-07, No Iterations 4
diagonal:  Solving for rho, Initial residual = 0, Final residual = 0, No Iterations 0
time step continuity errors : sum local = 2.11745e-08, global = -3.47544e-11, cumulative = 1.92751e-06
DILUPBiCGStab:  Solving for omega, Initial residual = 8.81712e-05, Final residual = 1.07039e-09, No Iterations 2
DILUPBiCGStab:  Solving for k, Initial residual = 0.00376444, Final residual = 3.43967e-09, No Iterations 3

ExecutionTime = 291.04 s  ClockTime = 291 s

    Overall     = 0.00124241, 0.01
Time = 2499

diagonal:  Solving for rho, Initial residual = 0, Final residual = 0, No Iterations 0

Execution time for mesh.update() = 0 s

DILUPBiCGStab:  Solving for Ux, Initial residual = 0.00463862, Final residual = 8.95702e-09, No Iterations 3
DILUPBiCGStab:  Solving for Uy, Initial residual = 0.00466243, Final residual = 6.26044e-09, No Iterations 3
DILUPBiCGStab:  Solving for O2, Initial residual = 0.0019092, Final residual = 4.41322e-09, No Iterations 3
DILUPBiCGStab:  Solving for H2O, Initial residual = 0.0019092, Final residual = 4.41324e-09, No Iterations 3
DILUPBiCGStab:  Solving for CH4, Initial residual = 0, Final residual = 0, No Iterations 0
DILUPBiCGStab:  Solving for CO2, Initial residual = 0.0019092, Final residual = 4.41324e-09, No Iterations 3
DILUPBiCGStab:  Solving for h, Initial residual = 0.00219807, Final residual = 2.08941e-09, No Iterations 3
min/max(T) = 300, 1044.98
GAMGPCG:  Solving for p_rgh, Initial residual = 0.0192673, Final residual = 1.3502e-07, No Iterations 5
diagonal:  Solving for rho, Initial residual = 0, Final residual = 0, No Iterations 0
time step continuity errors : sum local = 5.17384e-09, global = -1.56309e-10, cumulative = 1.92735e-06
GAMGPCG:  Solving for p_rgh, Initial residual = 0.00344213, Final residual = 5.86877e-07, No Iterations 4
diagonal:  Solving for rho, Initial residual = 0, Final residual = 0, No Iterations 0
time step continuity errors : sum local = 2.17059e-08, global = 4.6029e-10, cumulative = 1.92781e-06
DILUPBiCGStab:  Solving for omega, Initial residual = 8.7802e-05, Final residual = 1.07519e-09, No Iterations 2
DILUPBiCGStab:  Solving for k, Initial residual = 0.00375045, Final residual = 6.66122e-09, No Iterations 3

ExecutionTime = 291.15 s  ClockTime = 291 s

    Overall     = 0.00123733, 0.01
Time = 2500

diagonal:  Solving for rho, Initial residual = 0, Final residual = 0, No Iterations 0

Execution time for mesh.update() = 0 s

DILUPBiCGStab:  Solving for Ux, Initial residual = 0.00460946, Final residual = 6.12597e-09, No Iterations 3
DILUPBiCGStab:  Solving for Uy, Initial residual = 0.00466651, Final residual = 6.55021e-09, No Iterations 3
GAMGPCG:  Solving for G, Initial residual = 0.261733, Final residual = 2.76627e-05, No Iterations 6
DILUPBiCGStab:  Solving for O2, Initial residual = 0.00189517, Final residual = 2.17307e-09, No Iterations 3
DILUPBiCGStab:  Solving for H2O, Initial residual = 0.00189517, Final residual = 2.17307e-09, No Iterations 3
DILUPBiCGStab:  Solving for CH4, Initial residual = 0, Final residual = 0, No Iterations 0
DILUPBiCGStab:  Solving for CO2, Initial residual = 0.00189517, Final residual = 2.17307e-09, No Iterations 3
DILUPBiCGStab:  Solving for h, Initial residual = 0.00217921, Final residual = 2.25843e-09, No Iterations 3
min/max(T) = 300, 1044.98
GAMGPCG:  Solving for p_rgh, Initial residual = 0.0193076, Final residual = 1.39976e-07, No Iterations 5
diagonal:  Solving for rho, Initial residual = 0, Final residual = 0, No Iterations 0
time step continuity errors : sum local = 5.46599e-09, global = 1.22607e-09, cumulative = 1.92904e-06
GAMGPCG:  Solving for p_rgh, Initial residual = 0.00347794, Final residual = 5.69634e-07, No Iterations 4
diagonal:  Solving for rho, Initial residual = 0, Final residual = 0, No Iterations 0
time step continuity errors : sum local = 2.1079e-08, global = 6.37003e-10, cumulative = 1.92968e-06
DILUPBiCGStab:  Solving for omega, Initial residual = 8.8055e-05, Final residual = 1.12184e-09, No Iterations 2
DILUPBiCGStab:  Solving for k, Initial residual = 0.00374452, Final residual = 1.88648e-09, No Iterations 3

ExecutionTime = 291.41 s  ClockTime = 292 s


Patch Mean : 303.289
Patch Variance : 0.00167171
Patch Gradient : 0.230665
End
