/*---------------------------------------------------------------------------*\
  =========                 |
  \\      /  F ield         | OpenFOAM: The Open Source CFD Toolbox
   \\    /   O peration     | Website:  https://openfoam.org
    \\  /    A nd           | Version:  dev
     \\/     M anipulation  |
\*---------------------------------------------------------------------------*/
Build  : dev-cabe48fb62c1
Exec   : fireDyMFoam
Date   : Apr 15 2019
Time   : 12:09:26
Host   : "Host"
PID    : 31593
I/O    : uncollated
Case   : /home/tesla/OpenFOAM/tesla-dev/run/rollerOpt_COBYLA_NEW
nProcs : 1
sigFpe : Enabling floating point exception trapping (FOAM_SIGFPE).
fileModificationChecking : Monitoring run-time modified files using timeStampMaster (fileModificationSkew 10)
allowSystemOperations : Allowing user-supplied system call operations

// * * * * * * * * * * * * * * * * * * * * * * * * * * * * * * * * * * * * * //
Create time

--> FOAM Warning : 
    From function void* Foam::dlOpen(const Foam::fileName&, bool)
    in file POSIX.C at line 1268
    dlopen error : libgroovyBC.so: cannot open shared object file: No such file or directory
--> FOAM Warning : 
    From function bool Foam::dlLibraryTable::open(const Foam::fileName&, bool)
    in file db/dynamicLibrary/dlLibraryTable/dlLibraryTable.C at line 105
    could not load "libgroovyBC.so"
Create mesh for time = 250

Selecting dynamicFvMesh dynamicRefineFvMesh
Detected 536 cells that are protected from refinement. Writing these to cellSet protectedCells.

PIMPLE: No convergence criteria found


PIMPLE: Operating solver in PISO mode


Initializing Solver

Selecting thermodynamics package 
{
    type            hePsiThermo;
    mixture         reactingMixture;
    transport       sutherland;
    thermo          janaf;
    energy          sensibleEnthalpy;
    equationOfState perfectGas;
    specie          specie;
}

Selecting chemistryReader foamChemistryReader
    elements not defined in "/home/tesla/OpenFOAM/tesla-dev/run/rollerOpt_COBYLA_NEW/constant/reactions"
Reading/calculating face flux field phi

No MRF models present

Selecting turbulence model type RAS
Selecting RAS turbulence model kOmegaSST
Selecting patchDistMethod meshWave
kOmegaSSTCoeffs
{
    delta           cubeRootVol;
    cubeRootVolCoeffs
    {
        deltaCoeff      1;
    }
    alphaK1         0.85;
    alphaK2         1;
    alphaOmega1     0.5;
    alphaOmega2     0.856;
    gamma1          0.555556;
    gamma2          0.44;
    beta1           0.075;
    beta2           0.0828;
    betaStar        0.09;
    a1              0.31;
    b1              1;
    c1              10;
    F3              false;
}

Selecting combustion model none<psiThermoCombustion>
--> FOAM Warning : 
    From function static Foam::autoPtr<T> Foam::combustionModel::New(typename CombustionModel::reactionThermo&, const Foam::compressibleTurbulenceModel&, const Foam::word&) [with CombustionModel = Foam::CombustionModel<Foam::psiReactionThermo>; typename CombustionModel::reactionThermo = Foam::psiReactionThermo]
    in file /home/tesla/OpenFOAM/OpenFOAM-dev/src/combustionModels/lnInclude/combustionModelTemplates.C at line 69
    Template parameters are no longer required when selecting a combustionModel. This information is now obtained directly from the thermodynamics. Actually selecting combustion model none.

Reading g

Reading hRef
Calculating field g.h


Reading pRef
Selecting radiationModel P1
Selecting absorptionEmissionModel greyMeanAbsorptionEmission
Selecting scatterModel none
Selecting sootModel none
Creating finite volume options from "system/fvOptions"

No finite volume options present
Using LTS

Starting time loop

Using dynamicCode for functionObject patchCalcs at line 64 in "/home/tesla/OpenFOAM/tesla-dev/run/rollerOpt_COBYLA_NEW/system/controlDict.functions.patchCalcs"
    Overall     = 0.00126532, 0.01
Time = 251

diagonal:  Solving for rho, Initial residual = 0, Final residual = 0, No Iterations 0

Execution time for mesh.update() = 0 s

DILUPBiCGStab:  Solving for Ux, Initial residual = 0.00532553, Final residual = 2.75246e-09, No Iterations 3
DILUPBiCGStab:  Solving for Uy, Initial residual = 0.00786616, Final residual = 3.31329e-09, No Iterations 3
GAMGPCG:  Solving for G, Initial residual = 0.0281471, Final residual = 8.52739e-05, No Iterations 4
DILUPBiCGStab:  Solving for O2, Initial residual = 0.00330323, Final residual = 1.20945e-09, No Iterations 3
DILUPBiCGStab:  Solving for H2O, Initial residual = 0.00330322, Final residual = 1.2096e-09, No Iterations 3
DILUPBiCGStab:  Solving for CH4, Initial residual = 0, Final residual = 0, No Iterations 0
DILUPBiCGStab:  Solving for CO2, Initial residual = 0.00330322, Final residual = 1.20962e-09, No Iterations 3
DILUPBiCGStab:  Solving for h, Initial residual = 0.00392101, Final residual = 1.05447e-09, No Iterations 3
min/max(T) = 300, 1044.97
GAMGPCG:  Solving for p_rgh, Initial residual = 0.0204731, Final residual = 8.31836e-07, No Iterations 4
diagonal:  Solving for rho, Initial residual = 0, Final residual = 0, No Iterations 0
time step continuity errors : sum local = 2.47153e-06, global = -8.71532e-08, cumulative = -8.71532e-08
GAMGPCG:  Solving for p_rgh, Initial residual = 0.00280293, Final residual = 1.44055e-07, No Iterations 4
diagonal:  Solving for rho, Initial residual = 0, Final residual = 0, No Iterations 0
time step continuity errors : sum local = 2.46278e-06, global = -8.37692e-08, cumulative = -1.70922e-07
DILUPBiCGStab:  Solving for omega, Initial residual = 0.000101703, Final residual = 6.68902e-10, No Iterations 2
DILUPBiCGStab:  Solving for k, Initial residual = 0.00729553, Final residual = 1.47099e-09, No Iterations 3

ExecutionTime = 0.37 s  ClockTime = 0 s

    Overall     = 0.00126809, 0.01
Time = 252

diagonal:  Solving for rho, Initial residual = 0, Final residual = 0, No Iterations 0

Execution time for mesh.update() = 0 s

DILUPBiCGStab:  Solving for Ux, Initial residual = 0.00532536, Final residual = 3.25375e-09, No Iterations 3
DILUPBiCGStab:  Solving for Uy, Initial residual = 0.00788519, Final residual = 3.97758e-09, No Iterations 3
DILUPBiCGStab:  Solving for O2, Initial residual = 0.00329768, Final residual = 1.15205e-09, No Iterations 3
DILUPBiCGStab:  Solving for H2O, Initial residual = 0.00329767, Final residual = 1.15224e-09, No Iterations 3
DILUPBiCGStab:  Solving for CH4, Initial residual = 0, Final residual = 0, No Iterations 0
DILUPBiCGStab:  Solving for CO2, Initial residual = 0.00329767, Final residual = 1.15225e-09, No Iterations 3
DILUPBiCGStab:  Solving for h, Initial residual = 0.0039136, Final residual = 1.00556e-09, No Iterations 3
min/max(T) = 300, 1044.97
GAMGPCG:  Solving for p_rgh, Initial residual = 0.019974, Final residual = 6.70217e-07, No Iterations 4
diagonal:  Solving for rho, Initial residual = 0, Final residual = 0, No Iterations 0
time step continuity errors : sum local = 4.03046e-08, global = -3.61803e-09, cumulative = -1.7454e-07
GAMGPCG:  Solving for p_rgh, Initial residual = 0.00282558, Final residual = 8.8594e-07, No Iterations 3
diagonal:  Solving for rho, Initial residual = 0, Final residual = 0, No Iterations 0
time step continuity errors : sum local = 5.16405e-08, global = -1.28905e-09, cumulative = -1.75829e-07
DILUPBiCGStab:  Solving for omega, Initial residual = 0.000102927, Final residual = 6.79588e-10, No Iterations 2
DILUPBiCGStab:  Solving for k, Initial residual = 0.00730713, Final residual = 1.47232e-09, No Iterations 3

ExecutionTime = 0.49 s  ClockTime = 0 s

    Overall     = 0.00127138, 0.01
Time = 253

diagonal:  Solving for rho, Initial residual = 0, Final residual = 0, No Iterations 0

Execution time for mesh.update() = 0 s

DILUPBiCGStab:  Solving for Ux, Initial residual = 0.005311, Final residual = 3.26316e-09, No Iterations 3
DILUPBiCGStab:  Solving for Uy, Initial residual = 0.0078538, Final residual = 3.90191e-09, No Iterations 3
DILUPBiCGStab:  Solving for O2, Initial residual = 0.00329296, Final residual = 1.06748e-09, No Iterations 3
DILUPBiCGStab:  Solving for H2O, Initial residual = 0.00329297, Final residual = 1.06761e-09, No Iterations 3
DILUPBiCGStab:  Solving for CH4, Initial residual = 0, Final residual = 0, No Iterations 0
DILUPBiCGStab:  Solving for CO2, Initial residual = 0.00329297, Final residual = 1.06761e-09, No Iterations 3
DILUPBiCGStab:  Solving for h, Initial residual = 0.00391629, Final residual = 9.46737e-10, No Iterations 3
min/max(T) = 300, 1044.97
GAMGPCG:  Solving for p_rgh, Initial residual = 0.0203146, Final residual = 5.4014e-07, No Iterations 4
diagonal:  Solving for rho, Initial residual = 0, Final residual = 0, No Iterations 0
time step continuity errors : sum local = 3.18538e-08, global = -2.54889e-09, cumulative = -1.78378e-07
GAMGPCG:  Solving for p_rgh, Initial residual = 0.00271211, Final residual = 9.75512e-07, No Iterations 3
diagonal:  Solving for rho, Initial residual = 0, Final residual = 0, No Iterations 0
time step continuity errors : sum local = 5.59717e-08, global = 3.08768e-10, cumulative = -1.7807e-07
DILUPBiCGStab:  Solving for omega, Initial residual = 0.000103506, Final residual = 6.61571e-10, No Iterations 2
DILUPBiCGStab:  Solving for k, Initial residual = 0.00731959, Final residual = 1.40129e-09, No Iterations 3

ExecutionTime = 0.6 s  ClockTime = 0 s

    Overall     = 0.00127423, 0.01
Time = 254

diagonal:  Solving for rho, Initial residual = 0, Final residual = 0, No Iterations 0

Execution time for mesh.update() = 0 s

DILUPBiCGStab:  Solving for Ux, Initial residual = 0.00532017, Final residual = 3.10817e-09, No Iterations 3
DILUPBiCGStab:  Solving for Uy, Initial residual = 0.00784685, Final residual = 3.72268e-09, No Iterations 3
DILUPBiCGStab:  Solving for O2, Initial residual = 0.00329448, Final residual = 1.02408e-09, No Iterations 3
DILUPBiCGStab:  Solving for H2O, Initial residual = 0.00329448, Final residual = 1.02418e-09, No Iterations 3
DILUPBiCGStab:  Solving for CH4, Initial residual = 0, Final residual = 0, No Iterations 0
DILUPBiCGStab:  Solving for CO2, Initial residual = 0.00329448, Final residual = 1.02418e-09, No Iterations 3
DILUPBiCGStab:  Solving for h, Initial residual = 0.00391908, Final residual = 9.3025e-10, No Iterations 3
min/max(T) = 300, 1044.97
GAMGPCG:  Solving for p_rgh, Initial residual = 0.0205656, Final residual = 5.08984e-07, No Iterations 4
diagonal:  Solving for rho, Initial residual = 0, Final residual = 0, No Iterations 0
time step continuity errors : sum local = 2.98729e-08, global = -2.21426e-09, cumulative = -1.80284e-07
GAMGPCG:  Solving for p_rgh, Initial residual = 0.00287058, Final residual = 9.67405e-07, No Iterations 3
diagonal:  Solving for rho, Initial residual = 0, Final residual = 0, No Iterations 0
time step continuity errors : sum local = 5.555e-08, global = 6.50946e-10, cumulative = -1.79633e-07
DILUPBiCGStab:  Solving for omega, Initial residual = 0.000102062, Final residual = 6.30071e-10, No Iterations 2
DILUPBiCGStab:  Solving for k, Initial residual = 0.00730874, Final residual = 1.5577e-09, No Iterations 3

ExecutionTime = 0.71 s  ClockTime = 0 s

    Overall     = 0.00127818, 0.01
Time = 255

diagonal:  Solving for rho, Initial residual = 0, Final residual = 0, No Iterations 0

Execution time for mesh.update() = 0 s

DILUPBiCGStab:  Solving for Ux, Initial residual = 0.00530941, Final residual = 3.13035e-09, No Iterations 3
DILUPBiCGStab:  Solving for Uy, Initial residual = 0.00780901, Final residual = 3.89574e-09, No Iterations 3
DILUPBiCGStab:  Solving for O2, Initial residual = 0.00329244, Final residual = 8.94591e-10, No Iterations 3
DILUPBiCGStab:  Solving for H2O, Initial residual = 0.00329245, Final residual = 8.94564e-10, No Iterations 3
DILUPBiCGStab:  Solving for CH4, Initial residual = 0, Final residual = 0, No Iterations 0
DILUPBiCGStab:  Solving for CO2, Initial residual = 0.00329245, Final residual = 8.94538e-10, No Iterations 3
DILUPBiCGStab:  Solving for h, Initial residual = 0.00391983, Final residual = 8.67022e-10, No Iterations 3
min/max(T) = 300, 1044.97
GAMGPCG:  Solving for p_rgh, Initial residual = 0.0209435, Final residual = 4.75127e-07, No Iterations 4
diagonal:  Solving for rho, Initial residual = 0, Final residual = 0, No Iterations 0
time step continuity errors : sum local = 2.77756e-08, global = -1.43253e-09, cumulative = -1.81065e-07
GAMGPCG:  Solving for p_rgh, Initial residual = 0.00273542, Final residual = 7.70398e-07, No Iterations 3
diagonal:  Solving for rho, Initial residual = 0, Final residual = 0, No Iterations 0
time step continuity errors : sum local = 4.39173e-08, global = -1.31602e-09, cumulative = -1.82381e-07
DILUPBiCGStab:  Solving for omega, Initial residual = 0.000102257, Final residual = 6.57515e-10, No Iterations 2
DILUPBiCGStab:  Solving for k, Initial residual = 0.00730242, Final residual = 1.41112e-09, No Iterations 3

ExecutionTime = 0.83 s  ClockTime = 0 s

    Overall     = 0.00128218, 0.01
Time = 256

diagonal:  Solving for rho, Initial residual = 0, Final residual = 0, No Iterations 0

Execution time for mesh.update() = 0 s

DILUPBiCGStab:  Solving for Ux, Initial residual = 0.00531238, Final residual = 2.65034e-09, No Iterations 3
DILUPBiCGStab:  Solving for Uy, Initial residual = 0.00782035, Final residual = 3.65822e-09, No Iterations 3
DILUPBiCGStab:  Solving for O2, Initial residual = 0.00329146, Final residual = 9.95289e-09, No Iterations 2
DILUPBiCGStab:  Solving for H2O, Initial residual = 0.00329147, Final residual = 9.95277e-09, No Iterations 2
DILUPBiCGStab:  Solving for CH4, Initial residual = 0, Final residual = 0, No Iterations 0
DILUPBiCGStab:  Solving for CO2, Initial residual = 0.00329147, Final residual = 9.95275e-09, No Iterations 2
DILUPBiCGStab:  Solving for h, Initial residual = 0.00392064, Final residual = 8.21461e-10, No Iterations 3
min/max(T) = 300, 1044.97
GAMGPCG:  Solving for p_rgh, Initial residual = 0.0206592, Final residual = 4.71529e-07, No Iterations 4
diagonal:  Solving for rho, Initial residual = 0, Final residual = 0, No Iterations 0
time step continuity errors : sum local = 2.77502e-08, global = -1.74251e-09, cumulative = -1.84124e-07
GAMGPCG:  Solving for p_rgh, Initial residual = 0.00278344, Final residual = 8.11482e-07, No Iterations 3
diagonal:  Solving for rho, Initial residual = 0, Final residual = 0, No Iterations 0
time step continuity errors : sum local = 4.62465e-08, global = -9.85878e-10, cumulative = -1.8511e-07
DILUPBiCGStab:  Solving for omega, Initial residual = 0.000103218, Final residual = 6.43527e-10, No Iterations 2
DILUPBiCGStab:  Solving for k, Initial residual = 0.00728599, Final residual = 1.34251e-09, No Iterations 3

ExecutionTime = 0.94 s  ClockTime = 1 s

    Overall     = 0.00128609, 0.01
Time = 257

diagonal:  Solving for rho, Initial residual = 0, Final residual = 0, No Iterations 0

Execution time for mesh.update() = 0 s

DILUPBiCGStab:  Solving for Ux, Initial residual = 0.00530527, Final residual = 2.88617e-09, No Iterations 3
DILUPBiCGStab:  Solving for Uy, Initial residual = 0.00779586, Final residual = 3.43798e-09, No Iterations 3
DILUPBiCGStab:  Solving for O2, Initial residual = 0.00329482, Final residual = 9.93654e-10, No Iterations 3
DILUPBiCGStab:  Solving for H2O, Initial residual = 0.00329483, Final residual = 9.93673e-10, No Iterations 3
DILUPBiCGStab:  Solving for CH4, Initial residual = 0, Final residual = 0, No Iterations 0
DILUPBiCGStab:  Solving for CO2, Initial residual = 0.00329483, Final residual = 9.93673e-10, No Iterations 3
DILUPBiCGStab:  Solving for h, Initial residual = 0.00395187, Final residual = 9.04498e-10, No Iterations 3
min/max(T) = 300, 1044.97
GAMGPCG:  Solving for p_rgh, Initial residual = 0.0212614, Final residual = 4.96537e-07, No Iterations 4
diagonal:  Solving for rho, Initial residual = 0, Final residual = 0, No Iterations 0
time step continuity errors : sum local = 2.8894e-08, global = -1.69592e-09, cumulative = -1.86806e-07
GAMGPCG:  Solving for p_rgh, Initial residual = 0.00285085, Final residual = 7.38696e-07, No Iterations 3
diagonal:  Solving for rho, Initial residual = 0, Final residual = 0, No Iterations 0
time step continuity errors : sum local = 4.10959e-08, global = -1.67709e-09, cumulative = -1.88483e-07
DILUPBiCGStab:  Solving for omega, Initial residual = 0.000101985, Final residual = 6.62204e-10, No Iterations 2
DILUPBiCGStab:  Solving for k, Initial residual = 0.00727619, Final residual = 1.3464e-09, No Iterations 3

ExecutionTime = 1.05 s  ClockTime = 1 s

    Overall     = 0.00128646, 0.01
Time = 258

diagonal:  Solving for rho, Initial residual = 0, Final residual = 0, No Iterations 0

Execution time for mesh.update() = 0 s

DILUPBiCGStab:  Solving for Ux, Initial residual = 0.00530515, Final residual = 2.44346e-09, No Iterations 3
DILUPBiCGStab:  Solving for Uy, Initial residual = 0.00780904, Final residual = 3.43156e-09, No Iterations 3
DILUPBiCGStab:  Solving for O2, Initial residual = 0.00329928, Final residual = 9.4939e-10, No Iterations 3
DILUPBiCGStab:  Solving for H2O, Initial residual = 0.00329929, Final residual = 9.49399e-10, No Iterations 3
DILUPBiCGStab:  Solving for CH4, Initial residual = 0, Final residual = 0, No Iterations 0
DILUPBiCGStab:  Solving for CO2, Initial residual = 0.00329929, Final residual = 9.49401e-10, No Iterations 3
DILUPBiCGStab:  Solving for h, Initial residual = 0.00394495, Final residual = 8.36618e-10, No Iterations 3
min/max(T) = 300, 1044.97
GAMGPCG:  Solving for p_rgh, Initial residual = 0.0212287, Final residual = 5.44322e-07, No Iterations 4
diagonal:  Solving for rho, Initial residual = 0, Final residual = 0, No Iterations 0
time step continuity errors : sum local = 3.16639e-08, global = -3.0081e-09, cumulative = -1.91491e-07
GAMGPCG:  Solving for p_rgh, Initial residual = 0.00288773, Final residual = 9.45328e-07, No Iterations 3
diagonal:  Solving for rho, Initial residual = 0, Final residual = 0, No Iterations 0
time step continuity errors : sum local = 5.26234e-08, global = -7.33454e-10, cumulative = -1.92224e-07
DILUPBiCGStab:  Solving for omega, Initial residual = 0.000100403, Final residual = 6.09835e-10, No Iterations 2
DILUPBiCGStab:  Solving for k, Initial residual = 0.00726677, Final residual = 1.29432e-09, No Iterations 3

ExecutionTime = 1.17 s  ClockTime = 1 s

    Overall     = 0.00129173, 0.01
Time = 259

diagonal:  Solving for rho, Initial residual = 0, Final residual = 0, No Iterations 0

Execution time for mesh.update() = 0 s

DILUPBiCGStab:  Solving for Ux, Initial residual = 0.0053082, Final residual = 2.51874e-09, No Iterations 3
DILUPBiCGStab:  Solving for Uy, Initial residual = 0.00779196, Final residual = 3.01655e-09, No Iterations 3
DILUPBiCGStab:  Solving for O2, Initial residual = 0.00328786, Final residual = 9.49652e-10, No Iterations 3
DILUPBiCGStab:  Solving for H2O, Initial residual = 0.00328787, Final residual = 9.49669e-10, No Iterations 3
DILUPBiCGStab:  Solving for CH4, Initial residual = 0, Final residual = 0, No Iterations 0
DILUPBiCGStab:  Solving for CO2, Initial residual = 0.00328787, Final residual = 9.49671e-10, No Iterations 3
DILUPBiCGStab:  Solving for h, Initial residual = 0.00393555, Final residual = 8.9025e-10, No Iterations 3
min/max(T) = 300, 1044.97
GAMGPCG:  Solving for p_rgh, Initial residual = 0.0209428, Final residual = 5.84101e-07, No Iterations 4
diagonal:  Solving for rho, Initial residual = 0, Final residual = 0, No Iterations 0
time step continuity errors : sum local = 3.40365e-08, global = -2.32245e-09, cumulative = -1.94547e-07
GAMGPCG:  Solving for p_rgh, Initial residual = 0.00300455, Final residual = 9.68203e-07, No Iterations 3
diagonal:  Solving for rho, Initial residual = 0, Final residual = 0, No Iterations 0
time step continuity errors : sum local = 5.3003e-08, global = -9.01547e-10, cumulative = -1.95448e-07
DILUPBiCGStab:  Solving for omega, Initial residual = 0.000100577, Final residual = 6.29455e-10, No Iterations 2
DILUPBiCGStab:  Solving for k, Initial residual = 0.0072587, Final residual = 1.26328e-09, No Iterations 3

ExecutionTime = 1.28 s  ClockTime = 1 s

    Overall     = 0.00129741, 0.01
Time = 260

diagonal:  Solving for rho, Initial residual = 0, Final residual = 0, No Iterations 0

Execution time for mesh.update() = 0 s

DILUPBiCGStab:  Solving for Ux, Initial residual = 0.00529989, Final residual = 2.1447e-09, No Iterations 3
DILUPBiCGStab:  Solving for Uy, Initial residual = 0.00777605, Final residual = 3.43998e-09, No Iterations 3
GAMGPCG:  Solving for G, Initial residual = 0.134849, Final residual = 4.59332e-05, No Iterations 6
DILUPBiCGStab:  Solving for O2, Initial residual = 0.00329211, Final residual = 8.82552e-10, No Iterations 3
DILUPBiCGStab:  Solving for H2O, Initial residual = 0.00329212, Final residual = 8.82557e-10, No Iterations 3
DILUPBiCGStab:  Solving for CH4, Initial residual = 0, Final residual = 0, No Iterations 0
DILUPBiCGStab:  Solving for CO2, Initial residual = 0.00329212, Final residual = 8.82558e-10, No Iterations 3
DILUPBiCGStab:  Solving for h, Initial residual = 0.00394063, Final residual = 7.79472e-10, No Iterations 3
min/max(T) = 300, 1044.97
GAMGPCG:  Solving for p_rgh, Initial residual = 0.0207325, Final residual = 4.65376e-07, No Iterations 4
diagonal:  Solving for rho, Initial residual = 0, Final residual = 0, No Iterations 0
time step continuity errors : sum local = 2.7026e-08, global = -2.0623e-09, cumulative = -1.97511e-07
GAMGPCG:  Solving for p_rgh, Initial residual = 0.00286909, Final residual = 1.29401e-07, No Iterations 4
diagonal:  Solving for rho, Initial residual = 0, Final residual = 0, No Iterations 0
time step continuity errors : sum local = 7.1685e-09, global = 2.41336e-10, cumulative = -1.97269e-07
DILUPBiCGStab:  Solving for omega, Initial residual = 9.93868e-05, Final residual = 6.01495e-10, No Iterations 2
DILUPBiCGStab:  Solving for k, Initial residual = 0.00725189, Final residual = 1.26246e-09, No Iterations 3

ExecutionTime = 1.53 s  ClockTime = 1 s

    Overall     = 0.00130263, 0.01
Time = 261

diagonal:  Solving for rho, Initial residual = 0, Final residual = 0, No Iterations 0

Execution time for mesh.update() = 0 s

DILUPBiCGStab:  Solving for Ux, Initial residual = 0.00530288, Final residual = 2.37148e-09, No Iterations 3
DILUPBiCGStab:  Solving for Uy, Initial residual = 0.00774764, Final residual = 3.22754e-09, No Iterations 3
DILUPBiCGStab:  Solving for O2, Initial residual = 0.00327967, Final residual = 8.65294e-10, No Iterations 3
DILUPBiCGStab:  Solving for H2O, Initial residual = 0.00327968, Final residual = 8.65319e-10, No Iterations 3
DILUPBiCGStab:  Solving for CH4, Initial residual = 0, Final residual = 0, No Iterations 0
DILUPBiCGStab:  Solving for CO2, Initial residual = 0.00327968, Final residual = 8.65321e-10, No Iterations 3
DILUPBiCGStab:  Solving for h, Initial residual = 0.00393193, Final residual = 8.34045e-10, No Iterations 3
min/max(T) = 300, 1044.97
GAMGPCG:  Solving for p_rgh, Initial residual = 0.0209174, Final residual = 4.85279e-07, No Iterations 4
diagonal:  Solving for rho, Initial residual = 0, Final residual = 0, No Iterations 0
time step continuity errors : sum local = 2.77984e-08, global = -5.09978e-10, cumulative = -1.97779e-07
GAMGPCG:  Solving for p_rgh, Initial residual = 0.00282439, Final residual = 1.99546e-07, No Iterations 4
diagonal:  Solving for rho, Initial residual = 0, Final residual = 0, No Iterations 0
time step continuity errors : sum local = 1.09541e-08, global = -5.65968e-11, cumulative = -1.97836e-07
DILUPBiCGStab:  Solving for omega, Initial residual = 9.92825e-05, Final residual = 6.25472e-10, No Iterations 2
DILUPBiCGStab:  Solving for k, Initial residual = 0.00724228, Final residual = 1.19685e-09, No Iterations 3

ExecutionTime = 1.64 s  ClockTime = 1 s

    Overall     = 0.00130857, 0.01
Time = 262

diagonal:  Solving for rho, Initial residual = 0, Final residual = 0, No Iterations 0

Execution time for mesh.update() = 0 s

DILUPBiCGStab:  Solving for Ux, Initial residual = 0.00530664, Final residual = 2.09695e-09, No Iterations 3
DILUPBiCGStab:  Solving for Uy, Initial residual = 0.0077268, Final residual = 3.15848e-09, No Iterations 3
DILUPBiCGStab:  Solving for O2, Initial residual = 0.00328221, Final residual = 9.83042e-09, No Iterations 2
DILUPBiCGStab:  Solving for H2O, Initial residual = 0.00328222, Final residual = 9.83066e-09, No Iterations 2
DILUPBiCGStab:  Solving for CH4, Initial residual = 0, Final residual = 0, No Iterations 0
DILUPBiCGStab:  Solving for CO2, Initial residual = 0.00328222, Final residual = 9.83069e-09, No Iterations 2
DILUPBiCGStab:  Solving for h, Initial residual = 0.00393574, Final residual = 7.7394e-10, No Iterations 3
min/max(T) = 300, 1044.97
GAMGPCG:  Solving for p_rgh, Initial residual = 0.020947, Final residual = 3.83614e-07, No Iterations 4
diagonal:  Solving for rho, Initial residual = 0, Final residual = 0, No Iterations 0
time step continuity errors : sum local = 2.18528e-08, global = -6.95654e-10, cumulative = -1.98532e-07
GAMGPCG:  Solving for p_rgh, Initial residual = 0.00286689, Final residual = 1.94794e-07, No Iterations 4
diagonal:  Solving for rho, Initial residual = 0, Final residual = 0, No Iterations 0
time step continuity errors : sum local = 1.06462e-08, global = -1.86749e-10, cumulative = -1.98718e-07
DILUPBiCGStab:  Solving for omega, Initial residual = 9.94451e-05, Final residual = 5.80995e-10, No Iterations 2
DILUPBiCGStab:  Solving for k, Initial residual = 0.00721977, Final residual = 1.21137e-09, No Iterations 3

ExecutionTime = 1.76 s  ClockTime = 1 s

    Overall     = 0.00131433, 0.01
Time = 263

diagonal:  Solving for rho, Initial residual = 0, Final residual = 0, No Iterations 0

Execution time for mesh.update() = 0 s

DILUPBiCGStab:  Solving for Ux, Initial residual = 0.0052901, Final residual = 1.99599e-09, No Iterations 3
DILUPBiCGStab:  Solving for Uy, Initial residual = 0.00769634, Final residual = 3.10549e-09, No Iterations 3
DILUPBiCGStab:  Solving for O2, Initial residual = 0.00327137, Final residual = 9.32651e-09, No Iterations 2
DILUPBiCGStab:  Solving for H2O, Initial residual = 0.00327138, Final residual = 9.32662e-09, No Iterations 2
DILUPBiCGStab:  Solving for CH4, Initial residual = 0, Final residual = 0, No Iterations 0
DILUPBiCGStab:  Solving for CO2, Initial residual = 0.00327138, Final residual = 9.32664e-09, No Iterations 2
DILUPBiCGStab:  Solving for h, Initial residual = 0.00392514, Final residual = 8.21234e-10, No Iterations 3
min/max(T) = 300, 1044.97
GAMGPCG:  Solving for p_rgh, Initial residual = 0.020962, Final residual = 4.40318e-07, No Iterations 4
diagonal:  Solving for rho, Initial residual = 0, Final residual = 0, No Iterations 0
time step continuity errors : sum local = 2.44822e-08, global = -2.26157e-10, cumulative = -1.98944e-07
GAMGPCG:  Solving for p_rgh, Initial residual = 0.00291877, Final residual = 2.10839e-07, No Iterations 4
diagonal:  Solving for rho, Initial residual = 0, Final residual = 0, No Iterations 0
time step continuity errors : sum local = 1.15006e-08, global = -6.19238e-10, cumulative = -1.99564e-07
DILUPBiCGStab:  Solving for omega, Initial residual = 9.86015e-05, Final residual = 5.96836e-10, No Iterations 2
DILUPBiCGStab:  Solving for k, Initial residual = 0.00720712, Final residual = 1.13133e-09, No Iterations 3

ExecutionTime = 1.87 s  ClockTime = 2 s

    Overall     = 0.00132077, 0.01
Time = 264

diagonal:  Solving for rho, Initial residual = 0, Final residual = 0, No Iterations 0

Execution time for mesh.update() = 0 s

DILUPBiCGStab:  Solving for Ux, Initial residual = 0.00529155, Final residual = 1.73863e-09, No Iterations 3
DILUPBiCGStab:  Solving for Uy, Initial residual = 0.00766135, Final residual = 2.56177e-09, No Iterations 3
DILUPBiCGStab:  Solving for O2, Initial residual = 0.00327646, Final residual = 9.19825e-09, No Iterations 2
DILUPBiCGStab:  Solving for H2O, Initial residual = 0.00327647, Final residual = 9.19842e-09, No Iterations 2
DILUPBiCGStab:  Solving for CH4, Initial residual = 0, Final residual = 0, No Iterations 0
DILUPBiCGStab:  Solving for CO2, Initial residual = 0.00327647, Final residual = 9.19839e-09, No Iterations 2
DILUPBiCGStab:  Solving for h, Initial residual = 0.00393525, Final residual = 9.69202e-09, No Iterations 2
min/max(T) = 300, 1044.97
GAMGPCG:  Solving for p_rgh, Initial residual = 0.0231781, Final residual = 4.48383e-07, No Iterations 4
diagonal:  Solving for rho, Initial residual = 0, Final residual = 0, No Iterations 0
time step continuity errors : sum local = 2.52445e-08, global = 1.80732e-10, cumulative = -1.99383e-07
GAMGPCG:  Solving for p_rgh, Initial residual = 0.00287033, Final residual = 2.32818e-07, No Iterations 4
diagonal:  Solving for rho, Initial residual = 0, Final residual = 0, No Iterations 0
time step continuity errors : sum local = 1.26248e-08, global = -6.47642e-10, cumulative = -2.00031e-07
DILUPBiCGStab:  Solving for omega, Initial residual = 9.7826e-05, Final residual = 5.5142e-10, No Iterations 2
DILUPBiCGStab:  Solving for k, Initial residual = 0.00720238, Final residual = 1.08188e-09, No Iterations 3

ExecutionTime = 1.99 s  ClockTime = 2 s

    Overall     = 0.00132651, 0.01
Time = 265

diagonal:  Solving for rho, Initial residual = 0, Final residual = 0, No Iterations 0

Execution time for mesh.update() = 0 s

DILUPBiCGStab:  Solving for Ux, Initial residual = 0.0053171, Final residual = 2.00239e-09, No Iterations 3
DILUPBiCGStab:  Solving for Uy, Initial residual = 0.00765727, Final residual = 2.66785e-09, No Iterations 3
DILUPBiCGStab:  Solving for O2, Initial residual = 0.00327079, Final residual = 8.96592e-09, No Iterations 2
DILUPBiCGStab:  Solving for H2O, Initial residual = 0.0032708, Final residual = 8.96599e-09, No Iterations 2
DILUPBiCGStab:  Solving for CH4, Initial residual = 0, Final residual = 0, No Iterations 0
DILUPBiCGStab:  Solving for CO2, Initial residual = 0.0032708, Final residual = 8.96598e-09, No Iterations 2
DILUPBiCGStab:  Solving for h, Initial residual = 0.00393091, Final residual = 9.53518e-09, No Iterations 2
min/max(T) = 300, 1044.97
GAMGPCG:  Solving for p_rgh, Initial residual = 0.022397, Final residual = 4.47783e-07, No Iterations 4
diagonal:  Solving for rho, Initial residual = 0, Final residual = 0, No Iterations 0
time step continuity errors : sum local = 2.45458e-08, global = 4.77313e-10, cumulative = -1.99553e-07
GAMGPCG:  Solving for p_rgh, Initial residual = 0.00296589, Final residual = 9.98433e-07, No Iterations 3
diagonal:  Solving for rho, Initial residual = 0, Final residual = 0, No Iterations 0
time step continuity errors : sum local = 5.25913e-08, global = -3.12918e-09, cumulative = -2.02682e-07
DILUPBiCGStab:  Solving for omega, Initial residual = 9.95308e-05, Final residual = 5.67798e-10, No Iterations 2
DILUPBiCGStab:  Solving for k, Initial residual = 0.00720219, Final residual = 1.08326e-09, No Iterations 3

ExecutionTime = 2.1 s  ClockTime = 2 s

    Overall     = 0.00133375, 0.01
Time = 266

diagonal:  Solving for rho, Initial residual = 0, Final residual = 0, No Iterations 0

Execution time for mesh.update() = 0 s

DILUPBiCGStab:  Solving for Ux, Initial residual = 0.00529454, Final residual = 1.78161e-09, No Iterations 3
DILUPBiCGStab:  Solving for Uy, Initial residual = 0.00758497, Final residual = 2.83131e-09, No Iterations 3
DILUPBiCGStab:  Solving for O2, Initial residual = 0.00327313, Final residual = 8.12816e-09, No Iterations 2
DILUPBiCGStab:  Solving for H2O, Initial residual = 0.00327314, Final residual = 8.12829e-09, No Iterations 2
DILUPBiCGStab:  Solving for CH4, Initial residual = 0, Final residual = 0, No Iterations 0
DILUPBiCGStab:  Solving for CO2, Initial residual = 0.00327314, Final residual = 8.12826e-09, No Iterations 2
DILUPBiCGStab:  Solving for h, Initial residual = 0.00392981, Final residual = 8.44569e-09, No Iterations 2
min/max(T) = 300, 1044.97
GAMGPCG:  Solving for p_rgh, Initial residual = 0.0219668, Final residual = 4.86244e-07, No Iterations 4
diagonal:  Solving for rho, Initial residual = 0, Final residual = 0, No Iterations 0
time step continuity errors : sum local = 2.67623e-08, global = 9.05907e-10, cumulative = -2.01777e-07
GAMGPCG:  Solving for p_rgh, Initial residual = 0.00282873, Final residual = 1.27273e-07, No Iterations 4
diagonal:  Solving for rho, Initial residual = 0, Final residual = 0, No Iterations 0
time step continuity errors : sum local = 6.8353e-09, global = -1.72066e-10, cumulative = -2.01949e-07
DILUPBiCGStab:  Solving for omega, Initial residual = 0.000100103, Final residual = 9.56303e-09, No Iterations 2
DILUPBiCGStab:  Solving for k, Initial residual = 0.00719151, Final residual = 1.03206e-09, No Iterations 3

ExecutionTime = 2.22 s  ClockTime = 2 s

    Overall     = 0.00134086, 0.01
Time = 267

diagonal:  Solving for rho, Initial residual = 0, Final residual = 0, No Iterations 0

Execution time for mesh.update() = 0 s

DILUPBiCGStab:  Solving for Ux, Initial residual = 0.00530139, Final residual = 1.8647e-09, No Iterations 3
DILUPBiCGStab:  Solving for Uy, Initial residual = 0.00755238, Final residual = 2.60346e-09, No Iterations 3
DILUPBiCGStab:  Solving for O2, Initial residual = 0.00327239, Final residual = 8.15231e-09, No Iterations 2
DILUPBiCGStab:  Solving for H2O, Initial residual = 0.0032724, Final residual = 8.15238e-09, No Iterations 2
DILUPBiCGStab:  Solving for CH4, Initial residual = 0, Final residual = 0, No Iterations 0
DILUPBiCGStab:  Solving for CO2, Initial residual = 0.0032724, Final residual = 8.15236e-09, No Iterations 2
DILUPBiCGStab:  Solving for h, Initial residual = 0.00393464, Final residual = 8.99795e-09, No Iterations 2
min/max(T) = 300, 1044.97
GAMGPCG:  Solving for p_rgh, Initial residual = 0.0221652, Final residual = 5.34074e-07, No Iterations 4
diagonal:  Solving for rho, Initial residual = 0, Final residual = 0, No Iterations 0
time step continuity errors : sum local = 2.93308e-08, global = 8.02995e-10, cumulative = -2.01146e-07
GAMGPCG:  Solving for p_rgh, Initial residual = 0.00284361, Final residual = 1.06761e-07, No Iterations 4
diagonal:  Solving for rho, Initial residual = 0, Final residual = 0, No Iterations 0
time step continuity errors : sum local = 5.70228e-09, global = 3.85753e-10, cumulative = -2.0076e-07
DILUPBiCGStab:  Solving for omega, Initial residual = 9.8552e-05, Final residual = 9.00011e-09, No Iterations 2
DILUPBiCGStab:  Solving for k, Initial residual = 0.00717332, Final residual = 1.01943e-09, No Iterations 3

ExecutionTime = 2.33 s  ClockTime = 2 s

    Overall     = 0.00134833, 0.01
Time = 268

diagonal:  Solving for rho, Initial residual = 0, Final residual = 0, No Iterations 0

Execution time for mesh.update() = 0 s

DILUPBiCGStab:  Solving for Ux, Initial residual = 0.00531135, Final residual = 1.64979e-09, No Iterations 3
DILUPBiCGStab:  Solving for Uy, Initial residual = 0.00751094, Final residual = 2.60608e-09, No Iterations 3
DILUPBiCGStab:  Solving for O2, Initial residual = 0.0032767, Final residual = 7.00352e-09, No Iterations 2
DILUPBiCGStab:  Solving for H2O, Initial residual = 0.00327671, Final residual = 7.00359e-09, No Iterations 2
DILUPBiCGStab:  Solving for CH4, Initial residual = 0, Final residual = 0, No Iterations 0
DILUPBiCGStab:  Solving for CO2, Initial residual = 0.00327671, Final residual = 7.00359e-09, No Iterations 2
DILUPBiCGStab:  Solving for h, Initial residual = 0.00394578, Final residual = 7.68377e-09, No Iterations 2
min/max(T) = 300, 1044.97
GAMGPCG:  Solving for p_rgh, Initial residual = 0.0222709, Final residual = 6.4558e-07, No Iterations 4
diagonal:  Solving for rho, Initial residual = 0, Final residual = 0, No Iterations 0
time step continuity errors : sum local = 3.55901e-08, global = 5.82889e-10, cumulative = -2.00177e-07
GAMGPCG:  Solving for p_rgh, Initial residual = 0.00272659, Final residual = 1.33745e-07, No Iterations 4
diagonal:  Solving for rho, Initial residual = 0, Final residual = 0, No Iterations 0
time step continuity errors : sum local = 6.97072e-09, global = 8.29961e-10, cumulative = -1.99347e-07
DILUPBiCGStab:  Solving for omega, Initial residual = 9.86575e-05, Final residual = 7.71753e-09, No Iterations 2
DILUPBiCGStab:  Solving for k, Initial residual = 0.00716444, Final residual = 9.73686e-10, No Iterations 3

ExecutionTime = 2.45 s  ClockTime = 2 s

    Overall     = 0.00135641, 0.01
Time = 269

diagonal:  Solving for rho, Initial residual = 0, Final residual = 0, No Iterations 0

Execution time for mesh.update() = 0 s

DILUPBiCGStab:  Solving for Ux, Initial residual = 0.00535361, Final residual = 1.66174e-09, No Iterations 3
DILUPBiCGStab:  Solving for Uy, Initial residual = 0.0075101, Final residual = 2.34437e-09, No Iterations 3
DILUPBiCGStab:  Solving for O2, Initial residual = 0.00327667, Final residual = 7.36631e-09, No Iterations 2
DILUPBiCGStab:  Solving for H2O, Initial residual = 0.00327668, Final residual = 7.36634e-09, No Iterations 2
DILUPBiCGStab:  Solving for CH4, Initial residual = 0, Final residual = 0, No Iterations 0
DILUPBiCGStab:  Solving for CO2, Initial residual = 0.00327668, Final residual = 7.36635e-09, No Iterations 2
DILUPBiCGStab:  Solving for h, Initial residual = 0.00395286, Final residual = 7.91609e-09, No Iterations 2
min/max(T) = 300, 1044.97
GAMGPCG:  Solving for p_rgh, Initial residual = 0.0228674, Final residual = 6.65165e-07, No Iterations 4
diagonal:  Solving for rho, Initial residual = 0, Final residual = 0, No Iterations 0
time step continuity errors : sum local = 3.6311e-08, global = -4.131e-10, cumulative = -1.9976e-07
GAMGPCG:  Solving for p_rgh, Initial residual = 0.00291597, Final residual = 1.33923e-07, No Iterations 4
diagonal:  Solving for rho, Initial residual = 0, Final residual = 0, No Iterations 0
time step continuity errors : sum local = 6.90978e-09, global = 9.15171e-10, cumulative = -1.98845e-07
DILUPBiCGStab:  Solving for omega, Initial residual = 9.95308e-05, Final residual = 7.31781e-09, No Iterations 2
DILUPBiCGStab:  Solving for k, Initial residual = 0.00716015, Final residual = 9.578e-10, No Iterations 3

ExecutionTime = 2.56 s  ClockTime = 2 s

    Overall     = 0.00136507, 0.01
Time = 270

diagonal:  Solving for rho, Initial residual = 0, Final residual = 0, No Iterations 0

Execution time for mesh.update() = 0 s

DILUPBiCGStab:  Solving for Ux, Initial residual = 0.00535234, Final residual = 1.76799e-09, No Iterations 3
DILUPBiCGStab:  Solving for Uy, Initial residual = 0.00748724, Final residual = 2.0851e-09, No Iterations 3
GAMGPCG:  Solving for G, Initial residual = 0.161568, Final residual = 5.72005e-05, No Iterations 6
DILUPBiCGStab:  Solving for O2, Initial residual = 0.00327442, Final residual = 6.62498e-09, No Iterations 2
DILUPBiCGStab:  Solving for H2O, Initial residual = 0.00327443, Final residual = 6.62503e-09, No Iterations 2
DILUPBiCGStab:  Solving for CH4, Initial residual = 0, Final residual = 0, No Iterations 0
DILUPBiCGStab:  Solving for CO2, Initial residual = 0.00327443, Final residual = 6.62504e-09, No Iterations 2
DILUPBiCGStab:  Solving for h, Initial residual = 0.00395087, Final residual = 7.16983e-09, No Iterations 2
min/max(T) = 300, 1044.97
GAMGPCG:  Solving for p_rgh, Initial residual = 0.0218244, Final residual = 6.78351e-07, No Iterations 4
diagonal:  Solving for rho, Initial residual = 0, Final residual = 0, No Iterations 0
time step continuity errors : sum local = 3.66296e-08, global = -8.93521e-10, cumulative = -1.99739e-07
GAMGPCG:  Solving for p_rgh, Initial residual = 0.00299568, Final residual = 1.44166e-07, No Iterations 4
diagonal:  Solving for rho, Initial residual = 0, Final residual = 0, No Iterations 0
time step continuity errors : sum local = 7.45164e-09, global = 1.04651e-09, cumulative = -1.98692e-07
DILUPBiCGStab:  Solving for omega, Initial residual = 9.90669e-05, Final residual = 6.6219e-09, No Iterations 2
DILUPBiCGStab:  Solving for k, Initial residual = 0.00714598, Final residual = 8.93903e-10, No Iterations 3

ExecutionTime = 2.81 s  ClockTime = 2 s

    Overall     = 0.00137312, 0.01
Time = 271

diagonal:  Solving for rho, Initial residual = 0, Final residual = 0, No Iterations 0

Execution time for mesh.update() = 0 s

DILUPBiCGStab:  Solving for Ux, Initial residual = 0.00536393, Final residual = 1.59728e-09, No Iterations 3
DILUPBiCGStab:  Solving for Uy, Initial residual = 0.00743668, Final residual = 1.89701e-09, No Iterations 3
DILUPBiCGStab:  Solving for O2, Initial residual = 0.00326866, Final residual = 6.46019e-09, No Iterations 2
DILUPBiCGStab:  Solving for H2O, Initial residual = 0.00326867, Final residual = 6.46023e-09, No Iterations 2
DILUPBiCGStab:  Solving for CH4, Initial residual = 0, Final residual = 0, No Iterations 0
DILUPBiCGStab:  Solving for CO2, Initial residual = 0.00326867, Final residual = 6.46024e-09, No Iterations 2
DILUPBiCGStab:  Solving for h, Initial residual = 0.00394337, Final residual = 7.43539e-09, No Iterations 2
min/max(T) = 300, 1044.97
GAMGPCG:  Solving for p_rgh, Initial residual = 0.0220159, Final residual = 8.15456e-07, No Iterations 4
diagonal:  Solving for rho, Initial residual = 0, Final residual = 0, No Iterations 0
time step continuity errors : sum local = 4.36823e-08, global = -2.28933e-09, cumulative = -2.00981e-07
GAMGPCG:  Solving for p_rgh, Initial residual = 0.00291726, Final residual = 2.06392e-07, No Iterations 4
diagonal:  Solving for rho, Initial residual = 0, Final residual = 0, No Iterations 0
time step continuity errors : sum local = 1.0748e-08, global = 7.85752e-10, cumulative = -2.00196e-07
DILUPBiCGStab:  Solving for omega, Initial residual = 9.89978e-05, Final residual = 6.3566e-09, No Iterations 2
DILUPBiCGStab:  Solving for k, Initial residual = 0.00713086, Final residual = 8.92681e-10, No Iterations 3

ExecutionTime = 2.93 s  ClockTime = 3 s

    Overall     = 0.00138143, 0.01
Time = 272

diagonal:  Solving for rho, Initial residual = 0, Final residual = 0, No Iterations 0

Execution time for mesh.update() = 0 s

DILUPBiCGStab:  Solving for Ux, Initial residual = 0.00535196, Final residual = 1.45836e-09, No Iterations 3
DILUPBiCGStab:  Solving for Uy, Initial residual = 0.00738246, Final residual = 1.98709e-09, No Iterations 3
DILUPBiCGStab:  Solving for O2, Initial residual = 0.0032571, Final residual = 6.79221e-09, No Iterations 2
DILUPBiCGStab:  Solving for H2O, Initial residual = 0.00325711, Final residual = 6.79236e-09, No Iterations 2
DILUPBiCGStab:  Solving for CH4, Initial residual = 0, Final residual = 0, No Iterations 0
DILUPBiCGStab:  Solving for CO2, Initial residual = 0.00325711, Final residual = 6.79236e-09, No Iterations 2
DILUPBiCGStab:  Solving for h, Initial residual = 0.003928, Final residual = 7.34722e-09, No Iterations 2
min/max(T) = 300, 1044.97
GAMGPCG:  Solving for p_rgh, Initial residual = 0.0212361, Final residual = 6.50694e-07, No Iterations 4
diagonal:  Solving for rho, Initial residual = 0, Final residual = 0, No Iterations 0
time step continuity errors : sum local = 3.48444e-08, global = -1.40713e-09, cumulative = -2.01603e-07
GAMGPCG:  Solving for p_rgh, Initial residual = 0.00285865, Final residual = 1.96614e-07, No Iterations 4
diagonal:  Solving for rho, Initial residual = 0, Final residual = 0, No Iterations 0
time step continuity errors : sum local = 1.01939e-08, global = 4.8785e-10, cumulative = -2.01115e-07
DILUPBiCGStab:  Solving for omega, Initial residual = 9.81975e-05, Final residual = 6.03291e-09, No Iterations 2
DILUPBiCGStab:  Solving for k, Initial residual = 0.00711811, Final residual = 8.50017e-10, No Iterations 3

ExecutionTime = 3.05 s  ClockTime = 3 s

    Overall     = 0.00139008, 0.01
Time = 273

diagonal:  Solving for rho, Initial residual = 0, Final residual = 0, No Iterations 0

Execution time for mesh.update() = 0 s

DILUPBiCGStab:  Solving for Ux, Initial residual = 0.00536156, Final residual = 1.52331e-09, No Iterations 3
DILUPBiCGStab:  Solving for Uy, Initial residual = 0.00732957, Final residual = 1.98567e-09, No Iterations 3
DILUPBiCGStab:  Solving for O2, Initial residual = 0.00325394, Final residual = 6.70353e-09, No Iterations 2
DILUPBiCGStab:  Solving for H2O, Initial residual = 0.00325395, Final residual = 6.70366e-09, No Iterations 2
DILUPBiCGStab:  Solving for CH4, Initial residual = 0, Final residual = 0, No Iterations 0
DILUPBiCGStab:  Solving for CO2, Initial residual = 0.00325395, Final residual = 6.70367e-09, No Iterations 2
DILUPBiCGStab:  Solving for h, Initial residual = 0.00393434, Final residual = 7.64689e-09, No Iterations 2
min/max(T) = 300, 1044.97
GAMGPCG:  Solving for p_rgh, Initial residual = 0.0222917, Final residual = 6.38087e-07, No Iterations 4
diagonal:  Solving for rho, Initial residual = 0, Final residual = 0, No Iterations 0
time step continuity errors : sum local = 3.42569e-08, global = 4.9195e-10, cumulative = -2.00623e-07
GAMGPCG:  Solving for p_rgh, Initial residual = 0.00274939, Final residual = 9.9606e-07, No Iterations 3
diagonal:  Solving for rho, Initial residual = 0, Final residual = 0, No Iterations 0
time step continuity errors : sum local = 5.04578e-08, global = -4.18446e-09, cumulative = -2.04807e-07
DILUPBiCGStab:  Solving for omega, Initial residual = 9.77615e-05, Final residual = 6.03593e-09, No Iterations 2
DILUPBiCGStab:  Solving for k, Initial residual = 0.00711895, Final residual = 8.46498e-10, No Iterations 3

ExecutionTime = 3.16 s  ClockTime = 3 s

    Overall     = 0.00139706, 0.01
Time = 274

diagonal:  Solving for rho, Initial residual = 0, Final residual = 0, No Iterations 0

Execution time for mesh.update() = 0 s

DILUPBiCGStab:  Solving for Ux, Initial residual = 0.00538336, Final residual = 1.37322e-09, No Iterations 3
DILUPBiCGStab:  Solving for Uy, Initial residual = 0.00729904, Final residual = 1.92047e-09, No Iterations 3
DILUPBiCGStab:  Solving for O2, Initial residual = 0.00323691, Final residual = 6.897e-09, No Iterations 2
DILUPBiCGStab:  Solving for H2O, Initial residual = 0.00323692, Final residual = 6.89716e-09, No Iterations 2
DILUPBiCGStab:  Solving for CH4, Initial residual = 0, Final residual = 0, No Iterations 0
DILUPBiCGStab:  Solving for CO2, Initial residual = 0.00323692, Final residual = 6.89716e-09, No Iterations 2
DILUPBiCGStab:  Solving for h, Initial residual = 0.00390828, Final residual = 7.61059e-09, No Iterations 2
min/max(T) = 300, 1044.97
GAMGPCG:  Solving for p_rgh, Initial residual = 0.0211015, Final residual = 9.5528e-07, No Iterations 4
diagonal:  Solving for rho, Initial residual = 0, Final residual = 0, No Iterations 0
time step continuity errors : sum local = 5.32172e-08, global = 1.04193e-09, cumulative = -2.03765e-07
GAMGPCG:  Solving for p_rgh, Initial residual = 0.00287818, Final residual = 9.17285e-07, No Iterations 3
diagonal:  Solving for rho, Initial residual = 0, Final residual = 0, No Iterations 0
time step continuity errors : sum local = 4.69096e-08, global = -3.39741e-09, cumulative = -2.07163e-07
DILUPBiCGStab:  Solving for omega, Initial residual = 9.74328e-05, Final residual = 5.77997e-09, No Iterations 2
DILUPBiCGStab:  Solving for k, Initial residual = 0.0071113, Final residual = 8.01063e-10, No Iterations 3

ExecutionTime = 3.27 s  ClockTime = 3 s

    Overall     = 0.0014051, 0.01
Time = 275

diagonal:  Solving for rho, Initial residual = 0, Final residual = 0, No Iterations 0

Execution time for mesh.update() = 0 s

DILUPBiCGStab:  Solving for Ux, Initial residual = 0.00535878, Final residual = 1.55339e-09, No Iterations 3
DILUPBiCGStab:  Solving for Uy, Initial residual = 0.00723189, Final residual = 1.97976e-09, No Iterations 3
DILUPBiCGStab:  Solving for O2, Initial residual = 0.00322474, Final residual = 6.90549e-09, No Iterations 2
DILUPBiCGStab:  Solving for H2O, Initial residual = 0.00322475, Final residual = 6.90563e-09, No Iterations 2
DILUPBiCGStab:  Solving for CH4, Initial residual = 0, Final residual = 0, No Iterations 0
DILUPBiCGStab:  Solving for CO2, Initial residual = 0.00322475, Final residual = 6.90564e-09, No Iterations 2
DILUPBiCGStab:  Solving for h, Initial residual = 0.00389644, Final residual = 7.579e-09, No Iterations 2
min/max(T) = 300, 1044.97
GAMGPCG:  Solving for p_rgh, Initial residual = 0.0213223, Final residual = 6.76954e-07, No Iterations 4
diagonal:  Solving for rho, Initial residual = 0, Final residual = 0, No Iterations 0
time step continuity errors : sum local = 3.67248e-08, global = 1.60833e-09, cumulative = -2.05555e-07
GAMGPCG:  Solving for p_rgh, Initial residual = 0.0026506, Final residual = 1.23302e-07, No Iterations 4
diagonal:  Solving for rho, Initial residual = 0, Final residual = 0, No Iterations 0
time step continuity errors : sum local = 6.30479e-09, global = 1.37871e-10, cumulative = -2.05417e-07
DILUPBiCGStab:  Solving for omega, Initial residual = 9.79815e-05, Final residual = 5.78746e-09, No Iterations 2
DILUPBiCGStab:  Solving for k, Initial residual = 0.00710527, Final residual = 7.88498e-10, No Iterations 3

ExecutionTime = 3.38 s  ClockTime = 3 s

    Overall     = 0.00141166, 0.01
Time = 276

diagonal:  Solving for rho, Initial residual = 0, Final residual = 0, No Iterations 0

Execution time for mesh.update() = 0.01 s

DILUPBiCGStab:  Solving for Ux, Initial residual = 0.00537157, Final residual = 1.29031e-09, No Iterations 3
DILUPBiCGStab:  Solving for Uy, Initial residual = 0.00719164, Final residual = 2.08809e-09, No Iterations 3
DILUPBiCGStab:  Solving for O2, Initial residual = 0.00321772, Final residual = 7.39724e-09, No Iterations 2
DILUPBiCGStab:  Solving for H2O, Initial residual = 0.00321773, Final residual = 7.39739e-09, No Iterations 2
DILUPBiCGStab:  Solving for CH4, Initial residual = 0, Final residual = 0, No Iterations 0
DILUPBiCGStab:  Solving for CO2, Initial residual = 0.00321773, Final residual = 7.3974e-09, No Iterations 2
DILUPBiCGStab:  Solving for h, Initial residual = 0.00388424, Final residual = 7.5981e-09, No Iterations 2
min/max(T) = 300, 1044.97
GAMGPCG:  Solving for p_rgh, Initial residual = 0.0214892, Final residual = 9.76355e-07, No Iterations 4
diagonal:  Solving for rho, Initial residual = 0, Final residual = 0, No Iterations 0
time step continuity errors : sum local = 5.39063e-08, global = -2.03348e-09, cumulative = -2.0745e-07
GAMGPCG:  Solving for p_rgh, Initial residual = 0.00266407, Final residual = 1.61605e-07, No Iterations 4
diagonal:  Solving for rho, Initial residual = 0, Final residual = 0, No Iterations 0
time step continuity errors : sum local = 8.29103e-09, global = -2.4797e-10, cumulative = -2.07698e-07
DILUPBiCGStab:  Solving for omega, Initial residual = 9.74133e-05, Final residual = 5.71007e-09, No Iterations 2
DILUPBiCGStab:  Solving for k, Initial residual = 0.0071021, Final residual = 7.68243e-10, No Iterations 3

ExecutionTime = 3.5 s  ClockTime = 3 s

    Overall     = 0.00141936, 0.01
Time = 277

diagonal:  Solving for rho, Initial residual = 0, Final residual = 0, No Iterations 0

Execution time for mesh.update() = 0 s

DILUPBiCGStab:  Solving for Ux, Initial residual = 0.00536268, Final residual = 1.47397e-09, No Iterations 3
DILUPBiCGStab:  Solving for Uy, Initial residual = 0.00716489, Final residual = 2.1458e-09, No Iterations 3
DILUPBiCGStab:  Solving for O2, Initial residual = 0.00320666, Final residual = 6.93852e-09, No Iterations 2
DILUPBiCGStab:  Solving for H2O, Initial residual = 0.00320667, Final residual = 6.93865e-09, No Iterations 2
DILUPBiCGStab:  Solving for CH4, Initial residual = 0, Final residual = 0, No Iterations 0
DILUPBiCGStab:  Solving for CO2, Initial residual = 0.00320667, Final residual = 6.93865e-09, No Iterations 2
DILUPBiCGStab:  Solving for h, Initial residual = 0.00387311, Final residual = 7.66312e-09, No Iterations 2
min/max(T) = 300, 1044.97
GAMGPCG:  Solving for p_rgh, Initial residual = 0.0208759, Final residual = 7.54205e-07, No Iterations 4
diagonal:  Solving for rho, Initial residual = 0, Final residual = 0, No Iterations 0
time step continuity errors : sum local = 4.03852e-08, global = -5.20023e-10, cumulative = -2.08218e-07
GAMGPCG:  Solving for p_rgh, Initial residual = 0.00262103, Final residual = 1.60651e-07, No Iterations 4
diagonal:  Solving for rho, Initial residual = 0, Final residual = 0, No Iterations 0
time step continuity errors : sum local = 7.99954e-09, global = 1.11476e-09, cumulative = -2.07103e-07
DILUPBiCGStab:  Solving for omega, Initial residual = 9.6375e-05, Final residual = 5.72418e-09, No Iterations 2
DILUPBiCGStab:  Solving for k, Initial residual = 0.00711088, Final residual = 7.93595e-10, No Iterations 3

ExecutionTime = 3.61 s  ClockTime = 3 s

    Overall     = 0.00142535, 0.01
Time = 278

diagonal:  Solving for rho, Initial residual = 0, Final residual = 0, No Iterations 0

Execution time for mesh.update() = 0 s

DILUPBiCGStab:  Solving for Ux, Initial residual = 0.00536775, Final residual = 1.26079e-09, No Iterations 3
DILUPBiCGStab:  Solving for Uy, Initial residual = 0.00709956, Final residual = 2.13456e-09, No Iterations 3
DILUPBiCGStab:  Solving for O2, Initial residual = 0.00319706, Final residual = 6.84695e-09, No Iterations 2
DILUPBiCGStab:  Solving for H2O, Initial residual = 0.00319707, Final residual = 6.84708e-09, No Iterations 2
DILUPBiCGStab:  Solving for CH4, Initial residual = 0, Final residual = 0, No Iterations 0
DILUPBiCGStab:  Solving for CO2, Initial residual = 0.00319707, Final residual = 6.84709e-09, No Iterations 2
DILUPBiCGStab:  Solving for h, Initial residual = 0.00385192, Final residual = 7.63644e-09, No Iterations 2
min/max(T) = 300, 1044.97
GAMGPCG:  Solving for p_rgh, Initial residual = 0.0205925, Final residual = 1.57672e-07, No Iterations 5
diagonal:  Solving for rho, Initial residual = 0, Final residual = 0, No Iterations 0
time step continuity errors : sum local = 8.70229e-09, global = -1.87019e-10, cumulative = -2.0729e-07
GAMGPCG:  Solving for p_rgh, Initial residual = 0.00254371, Final residual = 1.81472e-07, No Iterations 4
diagonal:  Solving for rho, Initial residual = 0, Final residual = 0, No Iterations 0
time step continuity errors : sum local = 9.13492e-09, global = 1.22135e-09, cumulative = -2.06069e-07
DILUPBiCGStab:  Solving for omega, Initial residual = 9.66506e-05, Final residual = 5.70141e-09, No Iterations 2
DILUPBiCGStab:  Solving for k, Initial residual = 0.00710233, Final residual = 8.08208e-10, No Iterations 3

ExecutionTime = 3.73 s  ClockTime = 3 s

    Overall     = 0.00143272, 0.01
Time = 279

diagonal:  Solving for rho, Initial residual = 0, Final residual = 0, No Iterations 0

Execution time for mesh.update() = 0 s

DILUPBiCGStab:  Solving for Ux, Initial residual = 0.00538302, Final residual = 1.23963e-09, No Iterations 3
DILUPBiCGStab:  Solving for Uy, Initial residual = 0.00705254, Final residual = 2.02626e-09, No Iterations 3
DILUPBiCGStab:  Solving for O2, Initial residual = 0.00319108, Final residual = 6.72356e-09, No Iterations 2
DILUPBiCGStab:  Solving for H2O, Initial residual = 0.00319109, Final residual = 6.72365e-09, No Iterations 2
DILUPBiCGStab:  Solving for CH4, Initial residual = 0, Final residual = 0, No Iterations 0
DILUPBiCGStab:  Solving for CO2, Initial residual = 0.00319109, Final residual = 6.72366e-09, No Iterations 2
DILUPBiCGStab:  Solving for h, Initial residual = 0.00385043, Final residual = 7.02531e-09, No Iterations 2
min/max(T) = 300, 1044.97
GAMGPCG:  Solving for p_rgh, Initial residual = 0.0207531, Final residual = 7.92993e-07, No Iterations 4
diagonal:  Solving for rho, Initial residual = 0, Final residual = 0, No Iterations 0
time step continuity errors : sum local = 4.25989e-08, global = -2.28081e-09, cumulative = -2.0835e-07
GAMGPCG:  Solving for p_rgh, Initial residual = 0.0025946, Final residual = 1.7028e-07, No Iterations 4
diagonal:  Solving for rho, Initial residual = 0, Final residual = 0, No Iterations 0
time step continuity errors : sum local = 8.52912e-09, global = 1.47099e-09, cumulative = -2.06879e-07
DILUPBiCGStab:  Solving for omega, Initial residual = 9.67475e-05, Final residual = 5.87253e-09, No Iterations 2
DILUPBiCGStab:  Solving for k, Initial residual = 0.00709679, Final residual = 8.00886e-10, No Iterations 3

ExecutionTime = 3.85 s  ClockTime = 3 s

    Overall     = 0.00143779, 0.01
Time = 280

diagonal:  Solving for rho, Initial residual = 0, Final residual = 0, No Iterations 0

Execution time for mesh.update() = 0 s

DILUPBiCGStab:  Solving for Ux, Initial residual = 0.00539188, Final residual = 1.22653e-09, No Iterations 3
DILUPBiCGStab:  Solving for Uy, Initial residual = 0.00699603, Final residual = 2.25858e-09, No Iterations 3
GAMGPCG:  Solving for G, Initial residual = 0.176533, Final residual = 1.86444e-05, No Iterations 6
DILUPBiCGStab:  Solving for O2, Initial residual = 0.00318778, Final residual = 7.07865e-09, No Iterations 2
DILUPBiCGStab:  Solving for H2O, Initial residual = 0.00318779, Final residual = 7.0787e-09, No Iterations 2
DILUPBiCGStab:  Solving for CH4, Initial residual = 0, Final residual = 0, No Iterations 0
DILUPBiCGStab:  Solving for CO2, Initial residual = 0.00318779, Final residual = 7.07871e-09, No Iterations 2
DILUPBiCGStab:  Solving for h, Initial residual = 0.00384559, Final residual = 7.52001e-09, No Iterations 2
min/max(T) = 300, 1044.97
GAMGPCG:  Solving for p_rgh, Initial residual = 0.0204234, Final residual = 1.69109e-07, No Iterations 5
diagonal:  Solving for rho, Initial residual = 0, Final residual = 0, No Iterations 0
time step continuity errors : sum local = 9.20527e-09, global = -7.17408e-10, cumulative = -2.07596e-07
GAMGPCG:  Solving for p_rgh, Initial residual = 0.00243981, Final residual = 1.91577e-07, No Iterations 4
diagonal:  Solving for rho, Initial residual = 0, Final residual = 0, No Iterations 0
time step continuity errors : sum local = 9.58326e-09, global = 1.28773e-09, cumulative = -2.06309e-07
DILUPBiCGStab:  Solving for omega, Initial residual = 9.64274e-05, Final residual = 5.94488e-09, No Iterations 2
DILUPBiCGStab:  Solving for k, Initial residual = 0.00708993, Final residual = 7.8788e-10, No Iterations 3

ExecutionTime = 4.1 s  ClockTime = 4 s

    Overall     = 0.00144446, 0.01
Time = 281

diagonal:  Solving for rho, Initial residual = 0, Final residual = 0, No Iterations 0

Execution time for mesh.update() = 0 s

DILUPBiCGStab:  Solving for Ux, Initial residual = 0.00541291, Final residual = 1.22866e-09, No Iterations 3
DILUPBiCGStab:  Solving for Uy, Initial residual = 0.00695146, Final residual = 2.03334e-09, No Iterations 3
DILUPBiCGStab:  Solving for O2, Initial residual = 0.00318446, Final residual = 7.04965e-09, No Iterations 2
DILUPBiCGStab:  Solving for H2O, Initial residual = 0.00318447, Final residual = 7.04971e-09, No Iterations 2
DILUPBiCGStab:  Solving for CH4, Initial residual = 0, Final residual = 0, No Iterations 0
DILUPBiCGStab:  Solving for CO2, Initial residual = 0.00318447, Final residual = 7.04972e-09, No Iterations 2
DILUPBiCGStab:  Solving for h, Initial residual = 0.00384364, Final residual = 6.88812e-09, No Iterations 2
min/max(T) = 300, 1044.97
GAMGPCG:  Solving for p_rgh, Initial residual = 0.0202732, Final residual = 7.19546e-07, No Iterations 4
diagonal:  Solving for rho, Initial residual = 0, Final residual = 0, No Iterations 0
time step continuity errors : sum local = 3.78219e-08, global = -4.14237e-09, cumulative = -2.10451e-07
GAMGPCG:  Solving for p_rgh, Initial residual = 0.00250915, Final residual = 2.85189e-07, No Iterations 4
diagonal:  Solving for rho, Initial residual = 0, Final residual = 0, No Iterations 0
time step continuity errors : sum local = 1.40782e-08, global = 1.0857e-09, cumulative = -2.09365e-07
DILUPBiCGStab:  Solving for omega, Initial residual = 9.5808e-05, Final residual = 6.08573e-09, No Iterations 2
DILUPBiCGStab:  Solving for k, Initial residual = 0.00708708, Final residual = 7.89324e-10, No Iterations 3

ExecutionTime = 4.21 s  ClockTime = 4 s

    Overall     = 0.00144856, 0.01
Time = 282

diagonal:  Solving for rho, Initial residual = 0, Final residual = 0, No Iterations 0

Execution time for mesh.update() = 0 s

DILUPBiCGStab:  Solving for Ux, Initial residual = 0.00539913, Final residual = 1.21644e-09, No Iterations 3
DILUPBiCGStab:  Solving for Uy, Initial residual = 0.00688011, Final residual = 2.23733e-09, No Iterations 3
DILUPBiCGStab:  Solving for O2, Initial residual = 0.00317222, Final residual = 7.4253e-09, No Iterations 2
DILUPBiCGStab:  Solving for H2O, Initial residual = 0.00317223, Final residual = 7.42537e-09, No Iterations 2
DILUPBiCGStab:  Solving for CH4, Initial residual = 0, Final residual = 0, No Iterations 0
DILUPBiCGStab:  Solving for CO2, Initial residual = 0.00317223, Final residual = 7.42537e-09, No Iterations 2
DILUPBiCGStab:  Solving for h, Initial residual = 0.00382477, Final residual = 7.23515e-09, No Iterations 2
min/max(T) = 300, 1044.97
GAMGPCG:  Solving for p_rgh, Initial residual = 0.0196007, Final residual = 9.38355e-07, No Iterations 4
diagonal:  Solving for rho, Initial residual = 0, Final residual = 0, No Iterations 0
time step continuity errors : sum local = 5.04482e-08, global = -1.38387e-09, cumulative = -2.10749e-07
GAMGPCG:  Solving for p_rgh, Initial residual = 0.00238881, Final residual = 2.59564e-07, No Iterations 4
diagonal:  Solving for rho, Initial residual = 0, Final residual = 0, No Iterations 0
time step continuity errors : sum local = 1.2968e-08, global = 7.45364e-10, cumulative = -2.10004e-07
DILUPBiCGStab:  Solving for omega, Initial residual = 9.62939e-05, Final residual = 6.2187e-09, No Iterations 2
DILUPBiCGStab:  Solving for k, Initial residual = 0.00707739, Final residual = 9.90244e-09, No Iterations 2

ExecutionTime = 4.33 s  ClockTime = 4 s

    Overall     = 0.00145415, 0.01
Time = 283

diagonal:  Solving for rho, Initial residual = 0, Final residual = 0, No Iterations 0

Execution time for mesh.update() = 0 s

DILUPBiCGStab:  Solving for Ux, Initial residual = 0.00540078, Final residual = 1.22366e-09, No Iterations 3
DILUPBiCGStab:  Solving for Uy, Initial residual = 0.00682122, Final residual = 2.04767e-09, No Iterations 3
DILUPBiCGStab:  Solving for O2, Initial residual = 0.00316429, Final residual = 7.18953e-09, No Iterations 2
DILUPBiCGStab:  Solving for H2O, Initial residual = 0.00316431, Final residual = 7.18961e-09, No Iterations 2
DILUPBiCGStab:  Solving for CH4, Initial residual = 0, Final residual = 0, No Iterations 0
DILUPBiCGStab:  Solving for CO2, Initial residual = 0.00316431, Final residual = 7.18961e-09, No Iterations 2
DILUPBiCGStab:  Solving for h, Initial residual = 0.003815, Final residual = 6.90466e-09, No Iterations 2
min/max(T) = 300, 1044.97
GAMGPCG:  Solving for p_rgh, Initial residual = 0.0193888, Final residual = 4.84206e-07, No Iterations 4
diagonal:  Solving for rho, Initial residual = 0, Final residual = 0, No Iterations 0
time step continuity errors : sum local = 2.51584e-08, global = -2.07401e-09, cumulative = -2.12078e-07
GAMGPCG:  Solving for p_rgh, Initial residual = 0.00240577, Final residual = 1.90446e-07, No Iterations 4
diagonal:  Solving for rho, Initial residual = 0, Final residual = 0, No Iterations 0
time step continuity errors : sum local = 9.47055e-09, global = 1.26701e-09, cumulative = -2.10811e-07
DILUPBiCGStab:  Solving for omega, Initial residual = 9.56697e-05, Final residual = 6.32927e-09, No Iterations 2
DILUPBiCGStab:  Solving for k, Initial residual = 0.00706204, Final residual = 9.70295e-09, No Iterations 2

ExecutionTime = 4.44 s  ClockTime = 4 s

    Overall     = 0.00145726, 0.01
Time = 284

diagonal:  Solving for rho, Initial residual = 0, Final residual = 0, No Iterations 0

Execution time for mesh.update() = 0 s

DILUPBiCGStab:  Solving for Ux, Initial residual = 0.0054144, Final residual = 1.30328e-09, No Iterations 3
DILUPBiCGStab:  Solving for Uy, Initial residual = 0.00677359, Final residual = 2.17857e-09, No Iterations 3
DILUPBiCGStab:  Solving for O2, Initial residual = 0.00315765, Final residual = 7.23696e-09, No Iterations 2
DILUPBiCGStab:  Solving for H2O, Initial residual = 0.00315766, Final residual = 7.23703e-09, No Iterations 2
DILUPBiCGStab:  Solving for CH4, Initial residual = 0, Final residual = 0, No Iterations 0
DILUPBiCGStab:  Solving for CO2, Initial residual = 0.00315766, Final residual = 7.23703e-09, No Iterations 2
DILUPBiCGStab:  Solving for h, Initial residual = 0.00379932, Final residual = 7.1992e-09, No Iterations 2
min/max(T) = 300, 1044.97
GAMGPCG:  Solving for p_rgh, Initial residual = 0.0190251, Final residual = 8.07756e-07, No Iterations 4
diagonal:  Solving for rho, Initial residual = 0, Final residual = 0, No Iterations 0
time step continuity errors : sum local = 4.37415e-08, global = 4.91097e-10, cumulative = -2.1032e-07
GAMGPCG:  Solving for p_rgh, Initial residual = 0.00234619, Final residual = 1.3819e-07, No Iterations 4
diagonal:  Solving for rho, Initial residual = 0, Final residual = 0, No Iterations 0
time step continuity errors : sum local = 6.96472e-09, global = 6.62173e-10, cumulative = -2.09657e-07
DILUPBiCGStab:  Solving for omega, Initial residual = 9.59185e-05, Final residual = 6.52511e-09, No Iterations 2
DILUPBiCGStab:  Solving for k, Initial residual = 0.00705771, Final residual = 9.47314e-09, No Iterations 2

ExecutionTime = 4.55 s  ClockTime = 4 s

    Overall     = 0.00146178, 0.01
Time = 285

diagonal:  Solving for rho, Initial residual = 0, Final residual = 0, No Iterations 0

Execution time for mesh.update() = 0 s

DILUPBiCGStab:  Solving for Ux, Initial residual = 0.00541046, Final residual = 1.30096e-09, No Iterations 3
DILUPBiCGStab:  Solving for Uy, Initial residual = 0.00671668, Final residual = 2.23908e-09, No Iterations 3
DILUPBiCGStab:  Solving for O2, Initial residual = 0.00315188, Final residual = 6.785e-09, No Iterations 2
DILUPBiCGStab:  Solving for H2O, Initial residual = 0.00315189, Final residual = 6.78505e-09, No Iterations 2
DILUPBiCGStab:  Solving for CH4, Initial residual = 0, Final residual = 0, No Iterations 0
DILUPBiCGStab:  Solving for CO2, Initial residual = 0.00315189, Final residual = 6.78505e-09, No Iterations 2
DILUPBiCGStab:  Solving for h, Initial residual = 0.00378961, Final residual = 7.09185e-09, No Iterations 2
min/max(T) = 300, 1044.97
GAMGPCG:  Solving for p_rgh, Initial residual = 0.0191787, Final residual = 5.74019e-07, No Iterations 4
diagonal:  Solving for rho, Initial residual = 0, Final residual = 0, No Iterations 0
time step continuity errors : sum local = 2.97156e-08, global = -3.12714e-09, cumulative = -2.12785e-07
GAMGPCG:  Solving for p_rgh, Initial residual = 0.00240084, Final residual = 9.23326e-08, No Iterations 4
diagonal:  Solving for rho, Initial residual = 0, Final residual = 0, No Iterations 0
time step continuity errors : sum local = 4.63944e-09, global = 7.02038e-10, cumulative = -2.12083e-07
DILUPBiCGStab:  Solving for omega, Initial residual = 9.55441e-05, Final residual = 6.59565e-09, No Iterations 2
DILUPBiCGStab:  Solving for k, Initial residual = 0.00704334, Final residual = 9.41815e-09, No Iterations 2

ExecutionTime = 4.67 s  ClockTime = 4 s

    Overall     = 0.00146428, 0.01
Time = 286

diagonal:  Solving for rho, Initial residual = 0, Final residual = 0, No Iterations 0

Execution time for mesh.update() = 0 s

DILUPBiCGStab:  Solving for Ux, Initial residual = 0.0054345, Final residual = 1.31501e-09, No Iterations 3
DILUPBiCGStab:  Solving for Uy, Initial residual = 0.00669031, Final residual = 2.31915e-09, No Iterations 3
DILUPBiCGStab:  Solving for O2, Initial residual = 0.00313569, Final residual = 7.09596e-09, No Iterations 2
DILUPBiCGStab:  Solving for H2O, Initial residual = 0.0031357, Final residual = 7.096e-09, No Iterations 2
DILUPBiCGStab:  Solving for CH4, Initial residual = 0, Final residual = 0, No Iterations 0
DILUPBiCGStab:  Solving for CO2, Initial residual = 0.0031357, Final residual = 7.09601e-09, No Iterations 2
DILUPBiCGStab:  Solving for h, Initial residual = 0.00377531, Final residual = 7.32549e-09, No Iterations 2
min/max(T) = 300, 1044.97
GAMGPCG:  Solving for p_rgh, Initial residual = 0.0193294, Final residual = 4.32037e-07, No Iterations 4
diagonal:  Solving for rho, Initial residual = 0, Final residual = 0, No Iterations 0
time step continuity errors : sum local = 2.27498e-08, global = -1.25072e-09, cumulative = -2.13333e-07
GAMGPCG:  Solving for p_rgh, Initial residual = 0.00227392, Final residual = 1.41544e-07, No Iterations 4
diagonal:  Solving for rho, Initial residual = 0, Final residual = 0, No Iterations 0
time step continuity errors : sum local = 7.1246e-09, global = 1.02291e-09, cumulative = -2.1231e-07
DILUPBiCGStab:  Solving for omega, Initial residual = 9.44234e-05, Final residual = 6.87237e-09, No Iterations 2
DILUPBiCGStab:  Solving for k, Initial residual = 0.00702127, Final residual = 9.39209e-09, No Iterations 2

ExecutionTime = 4.78 s  ClockTime = 4 s

    Overall     = 0.00146851, 0.01
Time = 287

diagonal:  Solving for rho, Initial residual = 0, Final residual = 0, No Iterations 0

Execution time for mesh.update() = 0 s

DILUPBiCGStab:  Solving for Ux, Initial residual = 0.00544487, Final residual = 1.20514e-09, No Iterations 3
DILUPBiCGStab:  Solving for Uy, Initial residual = 0.00663944, Final residual = 2.08024e-09, No Iterations 3
DILUPBiCGStab:  Solving for O2, Initial residual = 0.00313366, Final residual = 6.96146e-09, No Iterations 2
DILUPBiCGStab:  Solving for H2O, Initial residual = 0.00313367, Final residual = 6.96148e-09, No Iterations 2
DILUPBiCGStab:  Solving for CH4, Initial residual = 0, Final residual = 0, No Iterations 0
DILUPBiCGStab:  Solving for CO2, Initial residual = 0.00313367, Final residual = 6.96148e-09, No Iterations 2
DILUPBiCGStab:  Solving for h, Initial residual = 0.00377065, Final residual = 7.07801e-09, No Iterations 2
min/max(T) = 300, 1044.97
GAMGPCG:  Solving for p_rgh, Initial residual = 0.0194524, Final residual = 5.75699e-07, No Iterations 4
diagonal:  Solving for rho, Initial residual = 0, Final residual = 0, No Iterations 0
time step continuity errors : sum local = 2.98315e-08, global = -3.97519e-09, cumulative = -2.16286e-07
GAMGPCG:  Solving for p_rgh, Initial residual = 0.00234938, Final residual = 1.39368e-07, No Iterations 4
diagonal:  Solving for rho, Initial residual = 0, Final residual = 0, No Iterations 0
time step continuity errors : sum local = 6.94971e-09, global = 1.27643e-09, cumulative = -2.15009e-07
DILUPBiCGStab:  Solving for omega, Initial residual = 9.40997e-05, Final residual = 6.84775e-09, No Iterations 2
DILUPBiCGStab:  Solving for k, Initial residual = 0.00700699, Final residual = 9.17717e-09, No Iterations 2

ExecutionTime = 4.9 s  ClockTime = 5 s

    Overall     = 0.00147047, 0.01
Time = 288

diagonal:  Solving for rho, Initial residual = 0, Final residual = 0, No Iterations 0

Execution time for mesh.update() = 0 s

DILUPBiCGStab:  Solving for Ux, Initial residual = 0.00546378, Final residual = 1.17283e-09, No Iterations 3
DILUPBiCGStab:  Solving for Uy, Initial residual = 0.00659682, Final residual = 2.13436e-09, No Iterations 3
DILUPBiCGStab:  Solving for O2, Initial residual = 0.00313213, Final residual = 7.6765e-09, No Iterations 2
DILUPBiCGStab:  Solving for H2O, Initial residual = 0.00313214, Final residual = 7.67652e-09, No Iterations 2
DILUPBiCGStab:  Solving for CH4, Initial residual = 0, Final residual = 0, No Iterations 0
DILUPBiCGStab:  Solving for CO2, Initial residual = 0.00313214, Final residual = 7.67653e-09, No Iterations 2
DILUPBiCGStab:  Solving for h, Initial residual = 0.00376032, Final residual = 7.42346e-09, No Iterations 2
min/max(T) = 300, 1044.97
GAMGPCG:  Solving for p_rgh, Initial residual = 0.0197084, Final residual = 5.26241e-07, No Iterations 4
diagonal:  Solving for rho, Initial residual = 0, Final residual = 0, No Iterations 0
time step continuity errors : sum local = 2.79679e-08, global = -9.4836e-10, cumulative = -2.15957e-07
GAMGPCG:  Solving for p_rgh, Initial residual = 0.0023609, Final residual = 1.66756e-07, No Iterations 4
diagonal:  Solving for rho, Initial residual = 0, Final residual = 0, No Iterations 0
time step continuity errors : sum local = 8.41194e-09, global = 1.5922e-09, cumulative = -2.14365e-07
DILUPBiCGStab:  Solving for omega, Initial residual = 9.3717e-05, Final residual = 7.1936e-09, No Iterations 2
DILUPBiCGStab:  Solving for k, Initial residual = 0.00697696, Final residual = 9.15934e-09, No Iterations 2

ExecutionTime = 5.01 s  ClockTime = 5 s

    Overall     = 0.00147525, 0.01
Time = 289

diagonal:  Solving for rho, Initial residual = 0, Final residual = 0, No Iterations 0

Execution time for mesh.update() = 0 s

DILUPBiCGStab:  Solving for Ux, Initial residual = 0.00546288, Final residual = 1.10148e-09, No Iterations 3
DILUPBiCGStab:  Solving for Uy, Initial residual = 0.00652758, Final residual = 1.95185e-09, No Iterations 3
DILUPBiCGStab:  Solving for O2, Initial residual = 0.00312973, Final residual = 7.56168e-09, No Iterations 2
DILUPBiCGStab:  Solving for H2O, Initial residual = 0.00312974, Final residual = 7.56171e-09, No Iterations 2
DILUPBiCGStab:  Solving for CH4, Initial residual = 0, Final residual = 0, No Iterations 0
DILUPBiCGStab:  Solving for CO2, Initial residual = 0.00312974, Final residual = 7.56171e-09, No Iterations 2
DILUPBiCGStab:  Solving for h, Initial residual = 0.00376328, Final residual = 7.46669e-09, No Iterations 2
min/max(T) = 300, 1044.97
GAMGPCG:  Solving for p_rgh, Initial residual = 0.0193862, Final residual = 6.73593e-07, No Iterations 4
diagonal:  Solving for rho, Initial residual = 0, Final residual = 0, No Iterations 0
time step continuity errors : sum local = 3.58313e-08, global = -2.5445e-09, cumulative = -2.1691e-07
GAMGPCG:  Solving for p_rgh, Initial residual = 0.00235918, Final residual = 1.92229e-07, No Iterations 4
diagonal:  Solving for rho, Initial residual = 0, Final residual = 0, No Iterations 0
time step continuity errors : sum local = 9.59755e-09, global = 2.10889e-09, cumulative = -2.14801e-07
DILUPBiCGStab:  Solving for omega, Initial residual = 9.36068e-05, Final residual = 7.04536e-09, No Iterations 2
DILUPBiCGStab:  Solving for k, Initial residual = 0.00694449, Final residual = 8.98045e-09, No Iterations 2

ExecutionTime = 5.13 s  ClockTime = 5 s

    Overall     = 0.0014783, 0.01
Time = 290

diagonal:  Solving for rho, Initial residual = 0, Final residual = 0, No Iterations 0

Execution time for mesh.update() = 0 s

DILUPBiCGStab:  Solving for Ux, Initial residual = 0.0054864, Final residual = 1.17323e-09, No Iterations 3
DILUPBiCGStab:  Solving for Uy, Initial residual = 0.00650662, Final residual = 2.05993e-09, No Iterations 3
GAMGPCG:  Solving for G, Initial residual = 0.207942, Final residual = 3.46569e-05, No Iterations 6
DILUPBiCGStab:  Solving for O2, Initial residual = 0.00310852, Final residual = 8.29192e-09, No Iterations 2
DILUPBiCGStab:  Solving for H2O, Initial residual = 0.00310853, Final residual = 8.29196e-09, No Iterations 2
DILUPBiCGStab:  Solving for CH4, Initial residual = 0, Final residual = 0, No Iterations 0
DILUPBiCGStab:  Solving for CO2, Initial residual = 0.00310853, Final residual = 8.29196e-09, No Iterations 2
DILUPBiCGStab:  Solving for h, Initial residual = 0.00374122, Final residual = 7.97122e-09, No Iterations 2
min/max(T) = 300, 1044.97
GAMGPCG:  Solving for p_rgh, Initial residual = 0.0194424, Final residual = 1.83466e-07, No Iterations 5
diagonal:  Solving for rho, Initial residual = 0, Final residual = 0, No Iterations 0
time step continuity errors : sum local = 9.88274e-09, global = -1.56192e-09, cumulative = -2.16363e-07
GAMGPCG:  Solving for p_rgh, Initial residual = 0.00233716, Final residual = 1.98473e-07, No Iterations 4
diagonal:  Solving for rho, Initial residual = 0, Final residual = 0, No Iterations 0
time step continuity errors : sum local = 9.9344e-09, global = 1.86199e-09, cumulative = -2.14501e-07
DILUPBiCGStab:  Solving for omega, Initial residual = 9.28779e-05, Final residual = 7.34125e-09, No Iterations 2
DILUPBiCGStab:  Solving for k, Initial residual = 0.00691194, Final residual = 9.12739e-09, No Iterations 2

ExecutionTime = 5.38 s  ClockTime = 5 s

    Overall     = 0.00148467, 0.01
Time = 291

diagonal:  Solving for rho, Initial residual = 0, Final residual = 0, No Iterations 0

Execution time for mesh.update() = 0 s

DILUPBiCGStab:  Solving for Ux, Initial residual = 0.00549404, Final residual = 1.11093e-09, No Iterations 3
DILUPBiCGStab:  Solving for Uy, Initial residual = 0.00645051, Final residual = 1.95369e-09, No Iterations 3
DILUPBiCGStab:  Solving for O2, Initial residual = 0.00311096, Final residual = 8.05441e-09, No Iterations 2
DILUPBiCGStab:  Solving for H2O, Initial residual = 0.00311097, Final residual = 8.05445e-09, No Iterations 2
DILUPBiCGStab:  Solving for CH4, Initial residual = 0, Final residual = 0, No Iterations 0
DILUPBiCGStab:  Solving for CO2, Initial residual = 0.00311097, Final residual = 8.05445e-09, No Iterations 2
DILUPBiCGStab:  Solving for h, Initial residual = 0.00374644, Final residual = 7.7508e-09, No Iterations 2
min/max(T) = 300, 1044.97
GAMGPCG:  Solving for p_rgh, Initial residual = 0.0196548, Final residual = 5.84888e-07, No Iterations 4
diagonal:  Solving for rho, Initial residual = 0, Final residual = 0, No Iterations 0
time step continuity errors : sum local = 3.12863e-08, global = -8.90943e-11, cumulative = -2.1459e-07
GAMGPCG:  Solving for p_rgh, Initial residual = 0.00229811, Final residual = 2.39277e-07, No Iterations 4
diagonal:  Solving for rho, Initial residual = 0, Final residual = 0, No Iterations 0
time step continuity errors : sum local = 1.19202e-08, global = 2.39714e-09, cumulative = -2.12193e-07
DILUPBiCGStab:  Solving for omega, Initial residual = 9.30148e-05, Final residual = 7.3183e-09, No Iterations 2
DILUPBiCGStab:  Solving for k, Initial residual = 0.00687875, Final residual = 9.02824e-09, No Iterations 2

ExecutionTime = 5.5 s  ClockTime = 5 s

    Overall     = 0.00148819, 0.01
Time = 292

diagonal:  Solving for rho, Initial residual = 0, Final residual = 0, No Iterations 0

Execution time for mesh.update() = 0 s

DILUPBiCGStab:  Solving for Ux, Initial residual = 0.00551132, Final residual = 1.23584e-09, No Iterations 3
DILUPBiCGStab:  Solving for Uy, Initial residual = 0.00643616, Final residual = 2.02282e-09, No Iterations 3
DILUPBiCGStab:  Solving for O2, Initial residual = 0.00309404, Final residual = 8.19105e-09, No Iterations 2
DILUPBiCGStab:  Solving for H2O, Initial residual = 0.00309405, Final residual = 8.19109e-09, No Iterations 2
DILUPBiCGStab:  Solving for CH4, Initial residual = 0, Final residual = 0, No Iterations 0
DILUPBiCGStab:  Solving for CO2, Initial residual = 0.00309405, Final residual = 8.19109e-09, No Iterations 2
DILUPBiCGStab:  Solving for h, Initial residual = 0.00371567, Final residual = 7.94097e-09, No Iterations 2
min/max(T) = 300, 1044.97
GAMGPCG:  Solving for p_rgh, Initial residual = 0.0195772, Final residual = 9.38523e-07, No Iterations 4
diagonal:  Solving for rho, Initial residual = 0, Final residual = 0, No Iterations 0
time step continuity errors : sum local = 4.97303e-08, global = 1.45609e-09, cumulative = -2.10737e-07
GAMGPCG:  Solving for p_rgh, Initial residual = 0.00235676, Final residual = 1.85856e-07, No Iterations 4
diagonal:  Solving for rho, Initial residual = 0, Final residual = 0, No Iterations 0
time step continuity errors : sum local = 9.21902e-09, global = 2.14022e-09, cumulative = -2.08596e-07
DILUPBiCGStab:  Solving for omega, Initial residual = 9.22212e-05, Final residual = 7.46742e-09, No Iterations 2
DILUPBiCGStab:  Solving for k, Initial residual = 0.00682469, Final residual = 9.33011e-09, No Iterations 2

ExecutionTime = 5.61 s  ClockTime = 5 s

    Overall     = 0.00149622, 0.01
Time = 293

diagonal:  Solving for rho, Initial residual = 0, Final residual = 0, No Iterations 0

Execution time for mesh.update() = 0 s

[...]

Execution time for mesh.update() = 0 s

DILUPBiCGStab:  Solving for Ux, Initial residual = 0.00562062, Final residual = 7.79874e-09, No Iterations 3
DILUPBiCGStab:  Solving for Uy, Initial residual = 0.00520141, Final residual = 7.15954e-09, No Iterations 3
GAMGPCG:  Solving for G, Initial residual = 0.145977, Final residual = 8.48287e-05, No Iterations 4
DILUPBiCGStab:  Solving for O2, Initial residual = 0.00195513, Final residual = 3.39252e-09, No Iterations 3
DILUPBiCGStab:  Solving for H2O, Initial residual = 0.00195513, Final residual = 3.39252e-09, No Iterations 3
DILUPBiCGStab:  Solving for CH4, Initial residual = 0, Final residual = 0, No Iterations 0
DILUPBiCGStab:  Solving for CO2, Initial residual = 0.00195513, Final residual = 3.39252e-09, No Iterations 3
DILUPBiCGStab:  Solving for h, Initial residual = 0.0021557, Final residual = 3.35389e-09, No Iterations 3
min/max(T) = 300, 1044.97
GAMGPCG:  Solving for p_rgh, Initial residual = 0.0177197, Final residual = 1.9936e-07, No Iterations 5
diagonal:  Solving for rho, Initial residual = 0, Final residual = 0, No Iterations 0
time step continuity errors : sum local = 7.45893e-09, global = 2.03283e-10, cumulative = 2.05881e-06
GAMGPCG:  Solving for p_rgh, Initial residual = 0.00332802, Final residual = 5.5532e-07, No Iterations 4
diagonal:  Solving for rho, Initial residual = 0, Final residual = 0, No Iterations 0
time step continuity errors : sum local = 2.03124e-08, global = 3.40181e-09, cumulative = 2.06222e-06
DILUPBiCGStab:  Solving for omega, Initial residual = 0.000105205, Final residual = 2.24487e-09, No Iterations 2
DILUPBiCGStab:  Solving for k, Initial residual = 0.00441558, Final residual = 3.15895e-09, No Iterations 3

ExecutionTime = 293.91 s  ClockTime = 294 s

    Overall     = 0.00126777, 0.01
Time = 2491

diagonal:  Solving for rho, Initial residual = 0, Final residual = 0, No Iterations 0

Execution time for mesh.update() = 0 s

DILUPBiCGStab:  Solving for Ux, Initial residual = 0.00563604, Final residual = 7.83796e-09, No Iterations 3
DILUPBiCGStab:  Solving for Uy, Initial residual = 0.00519719, Final residual = 7.43334e-09, No Iterations 3
DILUPBiCGStab:  Solving for O2, Initial residual = 0.0019555, Final residual = 3.34675e-09, No Iterations 3
DILUPBiCGStab:  Solving for H2O, Initial residual = 0.0019555, Final residual = 3.34675e-09, No Iterations 3
DILUPBiCGStab:  Solving for CH4, Initial residual = 0, Final residual = 0, No Iterations 0
DILUPBiCGStab:  Solving for CO2, Initial residual = 0.0019555, Final residual = 3.34675e-09, No Iterations 3
DILUPBiCGStab:  Solving for h, Initial residual = 0.0021538, Final residual = 3.29925e-09, No Iterations 3
min/max(T) = 300, 1044.97
GAMGPCG:  Solving for p_rgh, Initial residual = 0.0174606, Final residual = 1.67645e-07, No Iterations 5
diagonal:  Solving for rho, Initial residual = 0, Final residual = 0, No Iterations 0
time step continuity errors : sum local = 6.21395e-09, global = 3.81407e-10, cumulative = 2.0626e-06
GAMGPCG:  Solving for p_rgh, Initial residual = 0.00330945, Final residual = 5.40937e-07, No Iterations 4
diagonal:  Solving for rho, Initial residual = 0, Final residual = 0, No Iterations 0
time step continuity errors : sum local = 1.97003e-08, global = 3.58337e-09, cumulative = 2.06618e-06
DILUPBiCGStab:  Solving for omega, Initial residual = 0.000104685, Final residual = 2.16148e-09, No Iterations 2
DILUPBiCGStab:  Solving for k, Initial residual = 0.00443338, Final residual = 3.22337e-09, No Iterations 3

ExecutionTime = 294.03 s  ClockTime = 294 s

    Overall     = 0.00127107, 0.01
Time = 2492

diagonal:  Solving for rho, Initial residual = 0, Final residual = 0, No Iterations 0

Execution time for mesh.update() = 0 s

DILUPBiCGStab:  Solving for Ux, Initial residual = 0.00562494, Final residual = 7.68596e-09, No Iterations 3
DILUPBiCGStab:  Solving for Uy, Initial residual = 0.00514927, Final residual = 8.26399e-09, No Iterations 3
DILUPBiCGStab:  Solving for O2, Initial residual = 0.0019491, Final residual = 2.86484e-09, No Iterations 3
DILUPBiCGStab:  Solving for H2O, Initial residual = 0.0019491, Final residual = 2.86484e-09, No Iterations 3
DILUPBiCGStab:  Solving for CH4, Initial residual = 0, Final residual = 0, No Iterations 0
DILUPBiCGStab:  Solving for CO2, Initial residual = 0.0019491, Final residual = 2.86484e-09, No Iterations 3
DILUPBiCGStab:  Solving for h, Initial residual = 0.00214879, Final residual = 2.91261e-09, No Iterations 3
min/max(T) = 300, 1044.97
GAMGPCG:  Solving for p_rgh, Initial residual = 0.0171594, Final residual = 1.35914e-07, No Iterations 5
diagonal:  Solving for rho, Initial residual = 0, Final residual = 0, No Iterations 0
time step continuity errors : sum local = 5.04224e-09, global = 5.5449e-11, cumulative = 2.06624e-06
GAMGPCG:  Solving for p_rgh, Initial residual = 0.00328593, Final residual = 6.21983e-07, No Iterations 4
diagonal:  Solving for rho, Initial residual = 0, Final residual = 0, No Iterations 0
time step continuity errors : sum local = 2.25799e-08, global = 4.2746e-09, cumulative = 2.07051e-06
DILUPBiCGStab:  Solving for omega, Initial residual = 0.000104248, Final residual = 1.99382e-09, No Iterations 2
DILUPBiCGStab:  Solving for k, Initial residual = 0.00444297, Final residual = 3.47343e-09, No Iterations 3

ExecutionTime = 294.15 s  ClockTime = 294 s

    Overall     = 0.00126885, 0.01
Time = 2493

diagonal:  Solving for rho, Initial residual = 0, Final residual = 0, No Iterations 0

Execution time for mesh.update() = 0 s

DILUPBiCGStab:  Solving for Ux, Initial residual = 0.00559779, Final residual = 8.20603e-09, No Iterations 3
DILUPBiCGStab:  Solving for Uy, Initial residual = 0.00512438, Final residual = 8.59236e-09, No Iterations 3
DILUPBiCGStab:  Solving for O2, Initial residual = 0.00195254, Final residual = 2.55374e-09, No Iterations 3
DILUPBiCGStab:  Solving for H2O, Initial residual = 0.00195254, Final residual = 2.55374e-09, No Iterations 3
DILUPBiCGStab:  Solving for CH4, Initial residual = 0, Final residual = 0, No Iterations 0
DILUPBiCGStab:  Solving for CO2, Initial residual = 0.00195254, Final residual = 2.55374e-09, No Iterations 3
DILUPBiCGStab:  Solving for h, Initial residual = 0.00215048, Final residual = 2.56375e-09, No Iterations 3
min/max(T) = 300, 1044.97
GAMGPCG:  Solving for p_rgh, Initial residual = 0.0170479, Final residual = 1.49879e-07, No Iterations 5
diagonal:  Solving for rho, Initial residual = 0, Final residual = 0, No Iterations 0
time step continuity errors : sum local = 5.56075e-09, global = -4.0256e-10, cumulative = 2.07011e-06
GAMGPCG:  Solving for p_rgh, Initial residual = 0.00321436, Final residual = 6.13348e-07, No Iterations 4
diagonal:  Solving for rho, Initial residual = 0, Final residual = 0, No Iterations 0
time step continuity errors : sum local = 2.22552e-08, global = 4.02966e-09, cumulative = 2.07414e-06
DILUPBiCGStab:  Solving for omega, Initial residual = 0.000104383, Final residual = 1.87545e-09, No Iterations 2
DILUPBiCGStab:  Solving for k, Initial residual = 0.00444247, Final residual = 3.2185e-09, No Iterations 3

ExecutionTime = 294.27 s  ClockTime = 294 s

    Overall     = 0.0012724, 0.01
Time = 2494

diagonal:  Solving for rho, Initial residual = 0, Final residual = 0, No Iterations 0

Execution time for mesh.update() = 0 s

DILUPBiCGStab:  Solving for Ux, Initial residual = 0.00558335, Final residual = 8.18696e-09, No Iterations 3
DILUPBiCGStab:  Solving for Uy, Initial residual = 0.00510119, Final residual = 8.21457e-09, No Iterations 3
DILUPBiCGStab:  Solving for O2, Initial residual = 0.00194613, Final residual = 2.65414e-09, No Iterations 3
DILUPBiCGStab:  Solving for H2O, Initial residual = 0.00194613, Final residual = 2.65414e-09, No Iterations 3
DILUPBiCGStab:  Solving for CH4, Initial residual = 0, Final residual = 0, No Iterations 0
DILUPBiCGStab:  Solving for CO2, Initial residual = 0.00194613, Final residual = 2.65414e-09, No Iterations 3
DILUPBiCGStab:  Solving for h, Initial residual = 0.0021435, Final residual = 2.65086e-09, No Iterations 3
min/max(T) = 300, 1044.97
GAMGPCG:  Solving for p_rgh, Initial residual = 0.0168128, Final residual = 1.62566e-07, No Iterations 5
diagonal:  Solving for rho, Initial residual = 0, Final residual = 0, No Iterations 0
time step continuity errors : sum local = 6.06228e-09, global = -7.35139e-10, cumulative = 2.0734e-06
GAMGPCG:  Solving for p_rgh, Initial residual = 0.0031959, Final residual = 6.54931e-07, No Iterations 4
diagonal:  Solving for rho, Initial residual = 0, Final residual = 0, No Iterations 0
time step continuity errors : sum local = 2.36555e-08, global = 4.09133e-09, cumulative = 2.07749e-06
DILUPBiCGStab:  Solving for omega, Initial residual = 0.000103878, Final residual = 1.82963e-09, No Iterations 2
DILUPBiCGStab:  Solving for k, Initial residual = 0.00445369, Final residual = 3.08903e-09, No Iterations 3

ExecutionTime = 294.39 s  ClockTime = 294 s

    Overall     = 0.00127047, 0.01
Time = 2495

diagonal:  Solving for rho, Initial residual = 0, Final residual = 0, No Iterations 0

Execution time for mesh.update() = 0 s

DILUPBiCGStab:  Solving for Ux, Initial residual = 0.00557269, Final residual = 9.18316e-09, No Iterations 3
DILUPBiCGStab:  Solving for Uy, Initial residual = 0.00507596, Final residual = 8.07972e-09, No Iterations 3
DILUPBiCGStab:  Solving for O2, Initial residual = 0.00194566, Final residual = 2.84608e-09, No Iterations 3
DILUPBiCGStab:  Solving for H2O, Initial residual = 0.00194566, Final residual = 2.84608e-09, No Iterations 3
DILUPBiCGStab:  Solving for CH4, Initial residual = 0, Final residual = 0, No Iterations 0
DILUPBiCGStab:  Solving for CO2, Initial residual = 0.00194566, Final residual = 2.84608e-09, No Iterations 3
DILUPBiCGStab:  Solving for h, Initial residual = 0.00214163, Final residual = 2.7949e-09, No Iterations 3
min/max(T) = 300, 1044.97
GAMGPCG:  Solving for p_rgh, Initial residual = 0.0166752, Final residual = 1.63498e-07, No Iterations 5
diagonal:  Solving for rho, Initial residual = 0, Final residual = 0, No Iterations 0
time step continuity errors : sum local = 6.07744e-09, global = -2.90798e-10, cumulative = 2.0772e-06
GAMGPCG:  Solving for p_rgh, Initial residual = 0.00312306, Final residual = 6.63596e-07, No Iterations 4
diagonal:  Solving for rho, Initial residual = 0, Final residual = 0, No Iterations 0
time step continuity errors : sum local = 2.39502e-08, global = 3.95232e-09, cumulative = 2.08116e-06
DILUPBiCGStab:  Solving for omega, Initial residual = 0.00010414, Final residual = 1.77066e-09, No Iterations 2
DILUPBiCGStab:  Solving for k, Initial residual = 0.00448196, Final residual = 2.99968e-09, No Iterations 3

ExecutionTime = 294.51 s  ClockTime = 294 s

    Overall     = 0.00127416, 0.01
Time = 2496

diagonal:  Solving for rho, Initial residual = 0, Final residual = 0, No Iterations 0

Execution time for mesh.update() = 0 s

DILUPBiCGStab:  Solving for Ux, Initial residual = 0.00558065, Final residual = 8.25049e-10, No Iterations 3
DILUPBiCGStab:  Solving for Uy, Initial residual = 0.00506961, Final residual = 7.87829e-09, No Iterations 3
DILUPBiCGStab:  Solving for O2, Initial residual = 0.0019411, Final residual = 2.62718e-09, No Iterations 3
DILUPBiCGStab:  Solving for H2O, Initial residual = 0.0019411, Final residual = 2.62718e-09, No Iterations 3
DILUPBiCGStab:  Solving for CH4, Initial residual = 0, Final residual = 0, No Iterations 0
DILUPBiCGStab:  Solving for CO2, Initial residual = 0.0019411, Final residual = 2.62718e-09, No Iterations 3
DILUPBiCGStab:  Solving for h, Initial residual = 0.00213578, Final residual = 2.60982e-09, No Iterations 3
min/max(T) = 300, 1044.97
GAMGPCG:  Solving for p_rgh, Initial residual = 0.0166459, Final residual = 1.88171e-07, No Iterations 5
diagonal:  Solving for rho, Initial residual = 0, Final residual = 0, No Iterations 0
time step continuity errors : sum local = 6.99273e-09, global = -9.3545e-10, cumulative = 2.08022e-06
GAMGPCG:  Solving for p_rgh, Initial residual = 0.00315407, Final residual = 7.22791e-07, No Iterations 4
diagonal:  Solving for rho, Initial residual = 0, Final residual = 0, No Iterations 0
time step continuity errors : sum local = 2.61805e-08, global = 4.09134e-09, cumulative = 2.08431e-06
DILUPBiCGStab:  Solving for omega, Initial residual = 0.000104023, Final residual = 1.72209e-09, No Iterations 2
DILUPBiCGStab:  Solving for k, Initial residual = 0.00451638, Final residual = 2.78498e-09, No Iterations 3

ExecutionTime = 294.63 s  ClockTime = 294 s

    Overall     = 0.00127232, 0.01
Time = 2497

diagonal:  Solving for rho, Initial residual = 0, Final residual = 0, No Iterations 0

Execution time for mesh.update() = 0 s

DILUPBiCGStab:  Solving for Ux, Initial residual = 0.00559191, Final residual = 7.81913e-09, No Iterations 3
DILUPBiCGStab:  Solving for Uy, Initial residual = 0.00506542, Final residual = 7.96361e-09, No Iterations 3
DILUPBiCGStab:  Solving for O2, Initial residual = 0.00193591, Final residual = 2.78206e-09, No Iterations 3
DILUPBiCGStab:  Solving for H2O, Initial residual = 0.00193591, Final residual = 2.78206e-09, No Iterations 3
DILUPBiCGStab:  Solving for CH4, Initial residual = 0, Final residual = 0, No Iterations 0
DILUPBiCGStab:  Solving for CO2, Initial residual = 0.00193591, Final residual = 2.78206e-09, No Iterations 3
DILUPBiCGStab:  Solving for h, Initial residual = 0.00212825, Final residual = 2.7311e-09, No Iterations 3
min/max(T) = 300, 1044.97
GAMGPCG:  Solving for p_rgh, Initial residual = 0.0165506, Final residual = 1.92105e-07, No Iterations 5
diagonal:  Solving for rho, Initial residual = 0, Final residual = 0, No Iterations 0
time step continuity errors : sum local = 7.08646e-09, global = -9.81814e-10, cumulative = 2.08333e-06
GAMGPCG:  Solving for p_rgh, Initial residual = 0.00308023, Final residual = 6.95635e-07, No Iterations 4
diagonal:  Solving for rho, Initial residual = 0, Final residual = 0, No Iterations 0
time step continuity errors : sum local = 2.53212e-08, global = 3.82804e-09, cumulative = 2.08716e-06
DILUPBiCGStab:  Solving for omega, Initial residual = 0.000103365, Final residual = 1.72441e-09, No Iterations 2
DILUPBiCGStab:  Solving for k, Initial residual = 0.00447313, Final residual = 2.94573e-09, No Iterations 3

ExecutionTime = 294.75 s  ClockTime = 294 s

    Overall     = 0.00127598, 0.01
Time = 2498

diagonal:  Solving for rho, Initial residual = 0, Final residual = 0, No Iterations 0

Execution time for mesh.update() = 0 s

DILUPBiCGStab:  Solving for Ux, Initial residual = 0.00555892, Final residual = 7.18722e-09, No Iterations 3
DILUPBiCGStab:  Solving for Uy, Initial residual = 0.00505134, Final residual = 8.44582e-09, No Iterations 3
DILUPBiCGStab:  Solving for O2, Initial residual = 0.00192982, Final residual = 2.74114e-09, No Iterations 3
DILUPBiCGStab:  Solving for H2O, Initial residual = 0.00192982, Final residual = 2.74114e-09, No Iterations 3
DILUPBiCGStab:  Solving for CH4, Initial residual = 0, Final residual = 0, No Iterations 0
DILUPBiCGStab:  Solving for CO2, Initial residual = 0.00192982, Final residual = 2.74114e-09, No Iterations 3
DILUPBiCGStab:  Solving for h, Initial residual = 0.00212312, Final residual = 2.66769e-09, No Iterations 3
min/max(T) = 300, 1044.97
GAMGPCG:  Solving for p_rgh, Initial residual = 0.0166847, Final residual = 2.13452e-07, No Iterations 5
diagonal:  Solving for rho, Initial residual = 0, Final residual = 0, No Iterations 0
time step continuity errors : sum local = 7.93429e-09, global = -9.2279e-10, cumulative = 2.08623e-06
GAMGPCG:  Solving for p_rgh, Initial residual = 0.00311316, Final residual = 7.1669e-07, No Iterations 4
diagonal:  Solving for rho, Initial residual = 0, Final residual = 0, No Iterations 0
time step continuity errors : sum local = 2.60841e-08, global = 3.64816e-09, cumulative = 2.08988e-06
DILUPBiCGStab:  Solving for omega, Initial residual = 0.000103083, Final residual = 1.77407e-09, No Iterations 2
DILUPBiCGStab:  Solving for k, Initial residual = 0.00447699, Final residual = 2.80568e-09, No Iterations 3

ExecutionTime = 294.87 s  ClockTime = 295 s

    Overall     = 0.00127409, 0.01
Time = 2499

diagonal:  Solving for rho, Initial residual = 0, Final residual = 0, No Iterations 0

Execution time for mesh.update() = 0 s

DILUPBiCGStab:  Solving for Ux, Initial residual = 0.00554055, Final residual = 7.07484e-09, No Iterations 3
DILUPBiCGStab:  Solving for Uy, Initial residual = 0.00504059, Final residual = 8.57642e-09, No Iterations 3
DILUPBiCGStab:  Solving for O2, Initial residual = 0.00192512, Final residual = 2.76552e-09, No Iterations 3
DILUPBiCGStab:  Solving for H2O, Initial residual = 0.00192512, Final residual = 2.76552e-09, No Iterations 3
DILUPBiCGStab:  Solving for CH4, Initial residual = 0, Final residual = 0, No Iterations 0
DILUPBiCGStab:  Solving for CO2, Initial residual = 0.00192512, Final residual = 2.76552e-09, No Iterations 3
DILUPBiCGStab:  Solving for h, Initial residual = 0.00211642, Final residual = 2.7091e-09, No Iterations 3
min/max(T) = 300, 1044.97
GAMGPCG:  Solving for p_rgh, Initial residual = 0.016535, Final residual = 1.94708e-07, No Iterations 5
diagonal:  Solving for rho, Initial residual = 0, Final residual = 0, No Iterations 0
time step continuity errors : sum local = 7.38157e-09, global = -7.4668e-10, cumulative = 2.08914e-06
GAMGPCG:  Solving for p_rgh, Initial residual = 0.00307654, Final residual = 7.25337e-07, No Iterations 4
diagonal:  Solving for rho, Initial residual = 0, Final residual = 0, No Iterations 0
time step continuity errors : sum local = 2.64817e-08, global = 3.42436e-09, cumulative = 2.09256e-06
DILUPBiCGStab:  Solving for omega, Initial residual = 0.000102945, Final residual = 1.77557e-09, No Iterations 2
DILUPBiCGStab:  Solving for k, Initial residual = 0.00446017, Final residual = 2.74712e-09, No Iterations 3

ExecutionTime = 294.98 s  ClockTime = 295 s

    Overall     = 0.00127777, 0.01
Time = 2500

diagonal:  Solving for rho, Initial residual = 0, Final residual = 0, No Iterations 0

Execution time for mesh.update() = 0 s

DILUPBiCGStab:  Solving for Ux, Initial residual = 0.00553258, Final residual = 7.15433e-09, No Iterations 3
DILUPBiCGStab:  Solving for Uy, Initial residual = 0.00503506, Final residual = 9.1071e-09, No Iterations 3
GAMGPCG:  Solving for G, Initial residual = 0.158508, Final residual = 7.68438e-05, No Iterations 4
DILUPBiCGStab:  Solving for O2, Initial residual = 0.00191906, Final residual = 2.76676e-09, No Iterations 3
DILUPBiCGStab:  Solving for H2O, Initial residual = 0.00191906, Final residual = 2.76676e-09, No Iterations 3
DILUPBiCGStab:  Solving for CH4, Initial residual = 0, Final residual = 0, No Iterations 0
DILUPBiCGStab:  Solving for CO2, Initial residual = 0.00191906, Final residual = 2.76676e-09, No Iterations 3
DILUPBiCGStab:  Solving for h, Initial residual = 0.00210878, Final residual = 2.71703e-09, No Iterations 3
min/max(T) = 300, 1044.97
GAMGPCG:  Solving for p_rgh, Initial residual = 0.0165036, Final residual = 2.00287e-07, No Iterations 5
diagonal:  Solving for rho, Initial residual = 0, Final residual = 0, No Iterations 0
time step continuity errors : sum local = 7.53886e-09, global = -7.24243e-10, cumulative = 2.09184e-06
GAMGPCG:  Solving for p_rgh, Initial residual = 0.00309431, Final residual = 7.50922e-07, No Iterations 4
diagonal:  Solving for rho, Initial residual = 0, Final residual = 0, No Iterations 0
time step continuity errors : sum local = 2.74027e-08, global = 2.98039e-09, cumulative = 2.09482e-06
DILUPBiCGStab:  Solving for omega, Initial residual = 0.00010163, Final residual = 1.75278e-09, No Iterations 2
DILUPBiCGStab:  Solving for k, Initial residual = 0.00443485, Final residual = 2.82997e-09, No Iterations 3

ExecutionTime = 295.23 s  ClockTime = 295 s


Patch Mean : 302.799
Patch Variance : 0.0189178
Patch Gradient : 0.195892
End
