/*---------------------------------------------------------------------------*\
  =========                 |
  \\      /  F ield         | OpenFOAM: The Open Source CFD Toolbox
   \\    /   O peration     | Website:  https://openfoam.org
    \\  /    A nd           | Version:  dev
     \\/     M anipulation  |
\*---------------------------------------------------------------------------*/
Build  : dev-cabe48fb62c1
Exec   : fireDyMFoam
Date   : Apr 15 2019
Time   : 14:13:56
Host   : "Host"
PID    : 8032
I/O    : uncollated
Case   : /home/tesla/OpenFOAM/tesla-dev/run/rollerOpt_COBYLA_NEW
nProcs : 1
sigFpe : Enabling floating point exception trapping (FOAM_SIGFPE).
fileModificationChecking : Monitoring run-time modified files using timeStampMaster (fileModificationSkew 10)
allowSystemOperations : Allowing user-supplied system call operations

// * * * * * * * * * * * * * * * * * * * * * * * * * * * * * * * * * * * * * //
Create time

--> FOAM Warning : 
    From function void* Foam::dlOpen(const Foam::fileName&, bool)
    in file POSIX.C at line 1268
    dlopen error : libgroovyBC.so: cannot open shared object file: No such file or directory
--> FOAM Warning : 
    From function bool Foam::dlLibraryTable::open(const Foam::fileName&, bool)
    in file db/dynamicLibrary/dlLibraryTable/dlLibraryTable.C at line 105
    could not load "libgroovyBC.so"
Create mesh for time = 250

Selecting dynamicFvMesh dynamicRefineFvMesh
Detected 542 cells that are protected from refinement. Writing these to cellSet protectedCells.

PIMPLE: No convergence criteria found


PIMPLE: Operating solver in PISO mode


Initializing Solver

Selecting thermodynamics package 
{
    type            hePsiThermo;
    mixture         reactingMixture;
    transport       sutherland;
    thermo          janaf;
    energy          sensibleEnthalpy;
    equationOfState perfectGas;
    specie          specie;
}

Selecting chemistryReader foamChemistryReader
    elements not defined in "/home/tesla/OpenFOAM/tesla-dev/run/rollerOpt_COBYLA_NEW/constant/reactions"
Reading/calculating face flux field phi

No MRF models present

Selecting turbulence model type RAS
Selecting RAS turbulence model kOmegaSST
Selecting patchDistMethod meshWave
kOmegaSSTCoeffs
{
    delta           cubeRootVol;
    cubeRootVolCoeffs
    {
        deltaCoeff      1;
    }
    alphaK1         0.85;
    alphaK2         1;
    alphaOmega1     0.5;
    alphaOmega2     0.856;
    gamma1          0.555556;
    gamma2          0.44;
    beta1           0.075;
    beta2           0.0828;
    betaStar        0.09;
    a1              0.31;
    b1              1;
    c1              10;
    F3              false;
}

Selecting combustion model none<psiThermoCombustion>
--> FOAM Warning : 
    From function static Foam::autoPtr<T> Foam::combustionModel::New(typename CombustionModel::reactionThermo&, const Foam::compressibleTurbulenceModel&, const Foam::word&) [with CombustionModel = Foam::CombustionModel<Foam::psiReactionThermo>; typename CombustionModel::reactionThermo = Foam::psiReactionThermo]
    in file /home/tesla/OpenFOAM/OpenFOAM-dev/src/combustionModels/lnInclude/combustionModelTemplates.C at line 69
    Template parameters are no longer required when selecting a combustionModel. This information is now obtained directly from the thermodynamics. Actually selecting combustion model none.

Reading g

Reading hRef
Calculating field g.h


Reading pRef
Selecting radiationModel P1
Selecting absorptionEmissionModel greyMeanAbsorptionEmission
Selecting scatterModel none
Selecting sootModel none
Creating finite volume options from "system/fvOptions"

No finite volume options present
Using LTS

Starting time loop

Using dynamicCode for functionObject patchCalcs at line 64 in "/home/tesla/OpenFOAM/tesla-dev/run/rollerOpt_COBYLA_NEW/system/controlDict.functions.patchCalcs"
    Overall     = 0.0016667, 0.01
Time = 251

diagonal:  Solving for rho, Initial residual = 0, Final residual = 0, No Iterations 0

Execution time for mesh.update() = 0 s

DILUPBiCGStab:  Solving for Ux, Initial residual = 0.00547316, Final residual = 5.55181e-09, No Iterations 3
DILUPBiCGStab:  Solving for Uy, Initial residual = 0.00797448, Final residual = 6.66009e-09, No Iterations 3
GAMGPCG:  Solving for G, Initial residual = 0.0310399, Final residual = 5.16231e-05, No Iterations 4
DILUPBiCGStab:  Solving for O2, Initial residual = 0.00306617, Final residual = 2.41961e-09, No Iterations 3
DILUPBiCGStab:  Solving for H2O, Initial residual = 0.00306641, Final residual = 2.41949e-09, No Iterations 3
DILUPBiCGStab:  Solving for CH4, Initial residual = 0, Final residual = 0, No Iterations 0
DILUPBiCGStab:  Solving for CO2, Initial residual = 0.00306641, Final residual = 2.41948e-09, No Iterations 3
DILUPBiCGStab:  Solving for h, Initial residual = 0.00355562, Final residual = 2.47086e-09, No Iterations 3
min/max(T) = 299.588, 1044.98
GAMGPCG:  Solving for p_rgh, Initial residual = 0.0204586, Final residual = 9.51663e-07, No Iterations 4
diagonal:  Solving for rho, Initial residual = 0, Final residual = 0, No Iterations 0
time step continuity errors : sum local = 2.46885e-06, global = -1.36909e-07, cumulative = -1.36909e-07
GAMGPCG:  Solving for p_rgh, Initial residual = 0.00262712, Final residual = 1.87309e-07, No Iterations 4
diagonal:  Solving for rho, Initial residual = 0, Final residual = 0, No Iterations 0
time step continuity errors : sum local = 2.46444e-06, global = -1.35535e-07, cumulative = -2.72444e-07
DILUPBiCGStab:  Solving for omega, Initial residual = 0.000125624, Final residual = 1.68232e-09, No Iterations 2
DILUPBiCGStab:  Solving for k, Initial residual = 0.00641976, Final residual = 5.90598e-09, No Iterations 3

ExecutionTime = 0.38 s  ClockTime = 1 s

    Overall     = 0.00166856, 0.01
Time = 252

diagonal:  Solving for rho, Initial residual = 0, Final residual = 0, No Iterations 0

Execution time for mesh.update() = 0 s

DILUPBiCGStab:  Solving for Ux, Initial residual = 0.00546417, Final residual = 5.91549e-09, No Iterations 3
DILUPBiCGStab:  Solving for Uy, Initial residual = 0.00795086, Final residual = 6.61659e-09, No Iterations 3
DILUPBiCGStab:  Solving for O2, Initial residual = 0.00305343, Final residual = 2.44606e-09, No Iterations 3
DILUPBiCGStab:  Solving for H2O, Initial residual = 0.00305366, Final residual = 2.44597e-09, No Iterations 3
DILUPBiCGStab:  Solving for CH4, Initial residual = 0, Final residual = 0, No Iterations 0
DILUPBiCGStab:  Solving for CO2, Initial residual = 0.00305366, Final residual = 2.44594e-09, No Iterations 3
DILUPBiCGStab:  Solving for h, Initial residual = 0.00354199, Final residual = 2.52207e-09, No Iterations 3
min/max(T) = 299.585, 1044.98
GAMGPCG:  Solving for p_rgh, Initial residual = 0.0202251, Final residual = 7.44768e-07, No Iterations 4
diagonal:  Solving for rho, Initial residual = 0, Final residual = 0, No Iterations 0
time step continuity errors : sum local = 4.14193e-08, global = -2.25629e-09, cumulative = -2.747e-07
GAMGPCG:  Solving for p_rgh, Initial residual = 0.00255256, Final residual = 1.41817e-07, No Iterations 4
diagonal:  Solving for rho, Initial residual = 0, Final residual = 0, No Iterations 0
time step continuity errors : sum local = 7.37098e-09, global = 6.42087e-10, cumulative = -2.74058e-07
DILUPBiCGStab:  Solving for omega, Initial residual = 0.000125622, Final residual = 1.73217e-09, No Iterations 2
DILUPBiCGStab:  Solving for k, Initial residual = 0.00645784, Final residual = 3.09648e-09, No Iterations 3

ExecutionTime = 0.5 s  ClockTime = 1 s

    Overall     = 0.00166984, 0.01
Time = 253

diagonal:  Solving for rho, Initial residual = 0, Final residual = 0, No Iterations 0

Execution time for mesh.update() = 0 s

DILUPBiCGStab:  Solving for Ux, Initial residual = 0.00547085, Final residual = 5.93908e-09, No Iterations 3
DILUPBiCGStab:  Solving for Uy, Initial residual = 0.00794504, Final residual = 6.56912e-09, No Iterations 3
DILUPBiCGStab:  Solving for O2, Initial residual = 0.00304225, Final residual = 2.51824e-09, No Iterations 3
DILUPBiCGStab:  Solving for H2O, Initial residual = 0.0030425, Final residual = 2.51816e-09, No Iterations 3
DILUPBiCGStab:  Solving for CH4, Initial residual = 0, Final residual = 0, No Iterations 0
DILUPBiCGStab:  Solving for CO2, Initial residual = 0.0030425, Final residual = 2.51814e-09, No Iterations 3
DILUPBiCGStab:  Solving for h, Initial residual = 0.00353297, Final residual = 2.68961e-09, No Iterations 3
min/max(T) = 299.59, 1044.98
GAMGPCG:  Solving for p_rgh, Initial residual = 0.019954, Final residual = 7.30686e-07, No Iterations 4
diagonal:  Solving for rho, Initial residual = 0, Final residual = 0, No Iterations 0
time step continuity errors : sum local = 4.02862e-08, global = -3.00226e-09, cumulative = -2.7706e-07
GAMGPCG:  Solving for p_rgh, Initial residual = 0.00252164, Final residual = 1.47858e-07, No Iterations 4
diagonal:  Solving for rho, Initial residual = 0, Final residual = 0, No Iterations 0
time step continuity errors : sum local = 7.81084e-09, global = 3.15474e-10, cumulative = -2.76745e-07
DILUPBiCGStab:  Solving for omega, Initial residual = 0.000125047, Final residual = 1.90754e-09, No Iterations 2
DILUPBiCGStab:  Solving for k, Initial residual = 0.00648098, Final residual = 3.14283e-09, No Iterations 3

ExecutionTime = 0.61 s  ClockTime = 1 s

    Overall     = 0.00167103, 0.01
Time = 254

diagonal:  Solving for rho, Initial residual = 0, Final residual = 0, No Iterations 0

Execution time for mesh.update() = 0 s

DILUPBiCGStab:  Solving for Ux, Initial residual = 0.00546786, Final residual = 5.71803e-09, No Iterations 3
DILUPBiCGStab:  Solving for Uy, Initial residual = 0.00791456, Final residual = 6.51483e-09, No Iterations 3
DILUPBiCGStab:  Solving for O2, Initial residual = 0.00303163, Final residual = 2.60361e-09, No Iterations 3
DILUPBiCGStab:  Solving for H2O, Initial residual = 0.00303203, Final residual = 2.6036e-09, No Iterations 3
DILUPBiCGStab:  Solving for CH4, Initial residual = 0, Final residual = 0, No Iterations 0
DILUPBiCGStab:  Solving for CO2, Initial residual = 0.00303202, Final residual = 2.60358e-09, No Iterations 3
DILUPBiCGStab:  Solving for h, Initial residual = 0.00352625, Final residual = 2.7521e-09, No Iterations 3
min/max(T) = 299.587, 1044.98
GAMGPCG:  Solving for p_rgh, Initial residual = 0.0200117, Final residual = 6.27108e-07, No Iterations 4
diagonal:  Solving for rho, Initial residual = 0, Final residual = 0, No Iterations 0
time step continuity errors : sum local = 3.44718e-08, global = -4.18877e-09, cumulative = -2.80933e-07
GAMGPCG:  Solving for p_rgh, Initial residual = 0.00253275, Final residual = 1.25084e-07, No Iterations 4
diagonal:  Solving for rho, Initial residual = 0, Final residual = 0, No Iterations 0
time step continuity errors : sum local = 6.50929e-09, global = 6.79798e-10, cumulative = -2.80254e-07
DILUPBiCGStab:  Solving for omega, Initial residual = 0.000125469, Final residual = 2.12642e-09, No Iterations 2
DILUPBiCGStab:  Solving for k, Initial residual = 0.00648991, Final residual = 3.69011e-09, No Iterations 3

ExecutionTime = 0.73 s  ClockTime = 1 s

    Overall     = 0.00167176, 0.01
Time = 255

diagonal:  Solving for rho, Initial residual = 0, Final residual = 0, No Iterations 0

Execution time for mesh.update() = 0 s

DILUPBiCGStab:  Solving for Ux, Initial residual = 0.00546732, Final residual = 5.75006e-09, No Iterations 3
DILUPBiCGStab:  Solving for Uy, Initial residual = 0.00789394, Final residual = 6.80881e-09, No Iterations 3
DILUPBiCGStab:  Solving for O2, Initial residual = 0.00301741, Final residual = 2.72838e-09, No Iterations 3
DILUPBiCGStab:  Solving for H2O, Initial residual = 0.00301765, Final residual = 2.72845e-09, No Iterations 3
DILUPBiCGStab:  Solving for CH4, Initial residual = 0, Final residual = 0, No Iterations 0
DILUPBiCGStab:  Solving for CO2, Initial residual = 0.00301765, Final residual = 2.72845e-09, No Iterations 3
DILUPBiCGStab:  Solving for h, Initial residual = 0.00351393, Final residual = 2.91974e-09, No Iterations 3
min/max(T) = 299.591, 1044.98
GAMGPCG:  Solving for p_rgh, Initial residual = 0.0197241, Final residual = 6.54135e-07, No Iterations 4
diagonal:  Solving for rho, Initial residual = 0, Final residual = 0, No Iterations 0
time step continuity errors : sum local = 3.56332e-08, global = -4.12068e-09, cumulative = -2.84374e-07
GAMGPCG:  Solving for p_rgh, Initial residual = 0.00245947, Final residual = 1.61143e-07, No Iterations 4
diagonal:  Solving for rho, Initial residual = 0, Final residual = 0, No Iterations 0
time step continuity errors : sum local = 8.41365e-09, global = 4.77769e-10, cumulative = -2.83897e-07
DILUPBiCGStab:  Solving for omega, Initial residual = 0.000124539, Final residual = 2.25862e-09, No Iterations 2
DILUPBiCGStab:  Solving for k, Initial residual = 0.00649799, Final residual = 4.19038e-09, No Iterations 3

ExecutionTime = 0.84 s  ClockTime = 1 s

    Overall     = 0.00167243, 0.01
Time = 256

diagonal:  Solving for rho, Initial residual = 0, Final residual = 0, No Iterations 0

Execution time for mesh.update() = 0 s

DILUPBiCGStab:  Solving for Ux, Initial residual = 0.00547394, Final residual = 5.6652e-09, No Iterations 3
DILUPBiCGStab:  Solving for Uy, Initial residual = 0.00785359, Final residual = 6.97054e-09, No Iterations 3
DILUPBiCGStab:  Solving for O2, Initial residual = 0.00300278, Final residual = 2.79556e-09, No Iterations 3
DILUPBiCGStab:  Solving for H2O, Initial residual = 0.00300314, Final residual = 2.79566e-09, No Iterations 3
DILUPBiCGStab:  Solving for CH4, Initial residual = 0, Final residual = 0, No Iterations 0
DILUPBiCGStab:  Solving for CO2, Initial residual = 0.00300313, Final residual = 2.79566e-09, No Iterations 3
DILUPBiCGStab:  Solving for h, Initial residual = 0.00350283, Final residual = 3.04694e-09, No Iterations 3
min/max(T) = 299.589, 1044.98
GAMGPCG:  Solving for p_rgh, Initial residual = 0.0199111, Final residual = 6.75894e-07, No Iterations 4
diagonal:  Solving for rho, Initial residual = 0, Final residual = 0, No Iterations 0
time step continuity errors : sum local = 3.66867e-08, global = 2.50634e-09, cumulative = -2.8139e-07
GAMGPCG:  Solving for p_rgh, Initial residual = 0.00244589, Final residual = 1.5541e-07, No Iterations 4
diagonal:  Solving for rho, Initial residual = 0, Final residual = 0, No Iterations 0
time step continuity errors : sum local = 8.02052e-09, global = 8.74844e-10, cumulative = -2.80515e-07
DILUPBiCGStab:  Solving for omega, Initial residual = 0.000123708, Final residual = 2.30129e-09, No Iterations 2
DILUPBiCGStab:  Solving for k, Initial residual = 0.00649747, Final residual = 4.74159e-09, No Iterations 3

ExecutionTime = 0.96 s  ClockTime = 1 s

    Overall     = 0.0016721, 0.01
Time = 257

diagonal:  Solving for rho, Initial residual = 0, Final residual = 0, No Iterations 0

Execution time for mesh.update() = 0 s

DILUPBiCGStab:  Solving for Ux, Initial residual = 0.00548442, Final residual = 6.07161e-09, No Iterations 3
DILUPBiCGStab:  Solving for Uy, Initial residual = 0.00785059, Final residual = 7.53648e-09, No Iterations 3
DILUPBiCGStab:  Solving for O2, Initial residual = 0.002993, Final residual = 2.98391e-09, No Iterations 3
DILUPBiCGStab:  Solving for H2O, Initial residual = 0.00299321, Final residual = 2.98398e-09, No Iterations 3
DILUPBiCGStab:  Solving for CH4, Initial residual = 0, Final residual = 0, No Iterations 0
DILUPBiCGStab:  Solving for CO2, Initial residual = 0.0029932, Final residual = 2.98398e-09, No Iterations 3
DILUPBiCGStab:  Solving for h, Initial residual = 0.00349241, Final residual = 3.23817e-09, No Iterations 3
min/max(T) = 299.592, 1044.98
GAMGPCG:  Solving for p_rgh, Initial residual = 0.0193418, Final residual = 6.35483e-07, No Iterations 4
diagonal:  Solving for rho, Initial residual = 0, Final residual = 0, No Iterations 0
time step continuity errors : sum local = 3.44074e-08, global = 3.85168e-09, cumulative = -2.76664e-07
GAMGPCG:  Solving for p_rgh, Initial residual = 0.00241635, Final residual = 2.00488e-07, No Iterations 4
diagonal:  Solving for rho, Initial residual = 0, Final residual = 0, No Iterations 0
time step continuity errors : sum local = 1.04304e-08, global = 6.65049e-10, cumulative = -2.75999e-07
DILUPBiCGStab:  Solving for omega, Initial residual = 0.000123227, Final residual = 2.43081e-09, No Iterations 2
DILUPBiCGStab:  Solving for k, Initial residual = 0.00652666, Final residual = 5.26695e-09, No Iterations 3

ExecutionTime = 1.07 s  ClockTime = 1 s

    Overall     = 0.00167148, 0.01
Time = 258

diagonal:  Solving for rho, Initial residual = 0, Final residual = 0, No Iterations 0

Execution time for mesh.update() = 0 s

DILUPBiCGStab:  Solving for Ux, Initial residual = 0.00548505, Final residual = 6.18068e-09, No Iterations 3
DILUPBiCGStab:  Solving for Uy, Initial residual = 0.00784955, Final residual = 7.97923e-09, No Iterations 3
DILUPBiCGStab:  Solving for O2, Initial residual = 0.00298857, Final residual = 2.9901e-09, No Iterations 3
DILUPBiCGStab:  Solving for H2O, Initial residual = 0.00298889, Final residual = 2.99027e-09, No Iterations 3
DILUPBiCGStab:  Solving for CH4, Initial residual = 0, Final residual = 0, No Iterations 0
DILUPBiCGStab:  Solving for CO2, Initial residual = 0.00298889, Final residual = 2.99025e-09, No Iterations 3
DILUPBiCGStab:  Solving for h, Initial residual = 0.00349098, Final residual = 3.31603e-09, No Iterations 3
min/max(T) = 299.589, 1044.98
GAMGPCG:  Solving for p_rgh, Initial residual = 0.0195264, Final residual = 6.68343e-07, No Iterations 4
diagonal:  Solving for rho, Initial residual = 0, Final residual = 0, No Iterations 0
time step continuity errors : sum local = 3.65256e-08, global = 4.64429e-09, cumulative = -2.71354e-07
GAMGPCG:  Solving for p_rgh, Initial residual = 0.00246695, Final residual = 1.46516e-07, No Iterations 4
diagonal:  Solving for rho, Initial residual = 0, Final residual = 0, No Iterations 0
time step continuity errors : sum local = 7.6397e-09, global = 8.67054e-10, cumulative = -2.70487e-07
DILUPBiCGStab:  Solving for omega, Initial residual = 0.000122629, Final residual = 2.53549e-09, No Iterations 2
DILUPBiCGStab:  Solving for k, Initial residual = 0.00653823, Final residual = 5.76586e-09, No Iterations 3

ExecutionTime = 1.19 s  ClockTime = 1 s

    Overall     = 0.00166967, 0.01
Time = 259

diagonal:  Solving for rho, Initial residual = 0, Final residual = 0, No Iterations 0

Execution time for mesh.update() = 0 s

DILUPBiCGStab:  Solving for Ux, Initial residual = 0.00549356, Final residual = 6.27338e-09, No Iterations 3
DILUPBiCGStab:  Solving for Uy, Initial residual = 0.00785549, Final residual = 8.057e-09, No Iterations 3
DILUPBiCGStab:  Solving for O2, Initial residual = 0.00298216, Final residual = 7.40987e-09, No Iterations 3
DILUPBiCGStab:  Solving for H2O, Initial residual = 0.00298247, Final residual = 7.40985e-09, No Iterations 3
DILUPBiCGStab:  Solving for CH4, Initial residual = 0, Final residual = 0, No Iterations 0
DILUPBiCGStab:  Solving for CO2, Initial residual = 0.00298247, Final residual = 7.40967e-09, No Iterations 3
DILUPBiCGStab:  Solving for h, Initial residual = 0.00348677, Final residual = 7.3575e-09, No Iterations 3
min/max(T) = 299.591, 1044.98
GAMGPCG:  Solving for p_rgh, Initial residual = 0.0194969, Final residual = 6.46228e-07, No Iterations 4
diagonal:  Solving for rho, Initial residual = 0, Final residual = 0, No Iterations 0
time step continuity errors : sum local = 3.57718e-08, global = 4.13842e-09, cumulative = -2.66349e-07
GAMGPCG:  Solving for p_rgh, Initial residual = 0.00247433, Final residual = 1.95261e-07, No Iterations 4
diagonal:  Solving for rho, Initial residual = 0, Final residual = 0, No Iterations 0
time step continuity errors : sum local = 1.01159e-08, global = 1.01393e-09, cumulative = -2.65335e-07
DILUPBiCGStab:  Solving for omega, Initial residual = 0.000122058, Final residual = 2.62097e-09, No Iterations 2
DILUPBiCGStab:  Solving for k, Initial residual = 0.00656776, Final residual = 6.2223e-09, No Iterations 3

ExecutionTime = 1.3 s  ClockTime = 2 s

    Overall     = 0.00166745, 0.01
Time = 260

diagonal:  Solving for rho, Initial residual = 0, Final residual = 0, No Iterations 0

Execution time for mesh.update() = 0 s

DILUPBiCGStab:  Solving for Ux, Initial residual = 0.00548744, Final residual = 6.33057e-09, No Iterations 3
DILUPBiCGStab:  Solving for Uy, Initial residual = 0.00785876, Final residual = 9.88905e-09, No Iterations 3
GAMGPCG:  Solving for G, Initial residual = 0.121281, Final residual = 7.56339e-05, No Iterations 5
DILUPBiCGStab:  Solving for O2, Initial residual = 0.002976, Final residual = 5.46582e-09, No Iterations 3
DILUPBiCGStab:  Solving for H2O, Initial residual = 0.0029763, Final residual = 5.46556e-09, No Iterations 3
DILUPBiCGStab:  Solving for CH4, Initial residual = 0, Final residual = 0, No Iterations 0
DILUPBiCGStab:  Solving for CO2, Initial residual = 0.0029763, Final residual = 5.46542e-09, No Iterations 3
DILUPBiCGStab:  Solving for h, Initial residual = 0.00348141, Final residual = 5.12529e-09, No Iterations 3
min/max(T) = 299.586, 1044.98
GAMGPCG:  Solving for p_rgh, Initial residual = 0.0193659, Final residual = 7.18629e-07, No Iterations 4
diagonal:  Solving for rho, Initial residual = 0, Final residual = 0, No Iterations 0
time step continuity errors : sum local = 3.95478e-08, global = 5.22919e-09, cumulative = -2.60106e-07
GAMGPCG:  Solving for p_rgh, Initial residual = 0.00242014, Final residual = 1.31245e-07, No Iterations 4
diagonal:  Solving for rho, Initial residual = 0, Final residual = 0, No Iterations 0
time step continuity errors : sum local = 6.88656e-09, global = 7.0849e-10, cumulative = -2.59397e-07
DILUPBiCGStab:  Solving for omega, Initial residual = 0.000121439, Final residual = 2.584e-09, No Iterations 2
DILUPBiCGStab:  Solving for k, Initial residual = 0.00658925, Final residual = 8.19717e-09, No Iterations 3

ExecutionTime = 1.55 s  ClockTime = 2 s

    Overall     = 0.0016639, 0.01
Time = 261

diagonal:  Solving for rho, Initial residual = 0, Final residual = 0, No Iterations 0

Execution time for mesh.update() = 0 s

DILUPBiCGStab:  Solving for Ux, Initial residual = 0.00549754, Final residual = 6.8287e-09, No Iterations 3
DILUPBiCGStab:  Solving for Uy, Initial residual = 0.00785388, Final residual = 9.51665e-09, No Iterations 3
DILUPBiCGStab:  Solving for O2, Initial residual = 0.00296722, Final residual = 6.87441e-09, No Iterations 3
DILUPBiCGStab:  Solving for H2O, Initial residual = 0.00296751, Final residual = 6.87347e-09, No Iterations 3
DILUPBiCGStab:  Solving for CH4, Initial residual = 0, Final residual = 0, No Iterations 0
DILUPBiCGStab:  Solving for CO2, Initial residual = 0.00296751, Final residual = 6.87347e-09, No Iterations 3
DILUPBiCGStab:  Solving for h, Initial residual = 0.00347439, Final residual = 8.25076e-09, No Iterations 3
min/max(T) = 299.587, 1044.98
GAMGPCG:  Solving for p_rgh, Initial residual = 0.0194277, Final residual = 5.91111e-07, No Iterations 4
diagonal:  Solving for rho, Initial residual = 0, Final residual = 0, No Iterations 0
time step continuity errors : sum local = 3.2772e-08, global = 3.4919e-09, cumulative = -2.55905e-07
GAMGPCG:  Solving for p_rgh, Initial residual = 0.00247598, Final residual = 1.69862e-07, No Iterations 4
diagonal:  Solving for rho, Initial residual = 0, Final residual = 0, No Iterations 0
time step continuity errors : sum local = 8.97806e-09, global = 9.74888e-10, cumulative = -2.5493e-07
DILUPBiCGStab:  Solving for omega, Initial residual = 0.000120822, Final residual = 2.39659e-09, No Iterations 2
DILUPBiCGStab:  Solving for k, Initial residual = 0.00660855, Final residual = 9.21548e-09, No Iterations 3

ExecutionTime = 1.67 s  ClockTime = 2 s

    Overall     = 0.00166003, 0.01
Time = 262

diagonal:  Solving for rho, Initial residual = 0, Final residual = 0, No Iterations 0

Execution time for mesh.update() = 0 s

DILUPBiCGStab:  Solving for Ux, Initial residual = 0.00551365, Final residual = 7.05159e-09, No Iterations 3
DILUPBiCGStab:  Solving for Uy, Initial residual = 0.0078438, Final residual = 1.05036e-09, No Iterations 3
DILUPBiCGStab:  Solving for O2, Initial residual = 0.00296157, Final residual = 3.03999e-09, No Iterations 3
DILUPBiCGStab:  Solving for H2O, Initial residual = 0.00296187, Final residual = 3.03986e-09, No Iterations 3
DILUPBiCGStab:  Solving for CH4, Initial residual = 0, Final residual = 0, No Iterations 0
DILUPBiCGStab:  Solving for CO2, Initial residual = 0.00296187, Final residual = 3.03989e-09, No Iterations 3
DILUPBiCGStab:  Solving for h, Initial residual = 0.00347361, Final residual = 5.27954e-09, No Iterations 3
min/max(T) = 299.581, 1044.98
GAMGPCG:  Solving for p_rgh, Initial residual = 0.019563, Final residual = 8.07397e-07, No Iterations 4
diagonal:  Solving for rho, Initial residual = 0, Final residual = 0, No Iterations 0
time step continuity errors : sum local = 4.50342e-08, global = 5.09329e-09, cumulative = -2.49837e-07
GAMGPCG:  Solving for p_rgh, Initial residual = 0.00248186, Final residual = 1.31821e-07, No Iterations 4
diagonal:  Solving for rho, Initial residual = 0, Final residual = 0, No Iterations 0
time step continuity errors : sum local = 6.94317e-09, global = 8.94331e-10, cumulative = -2.48943e-07
DILUPBiCGStab:  Solving for omega, Initial residual = 0.000120638, Final residual = 2.2442e-09, No Iterations 2
DILUPBiCGStab:  Solving for k, Initial residual = 0.00664164, Final residual = 3.09298e-11, No Iterations 4

ExecutionTime = 1.78 s  ClockTime = 2 s

    Overall     = 0.0016548, 0.01
Time = 263

diagonal:  Solving for rho, Initial residual = 0, Final residual = 0, No Iterations 0

Execution time for mesh.update() = 0 s

DILUPBiCGStab:  Solving for Ux, Initial residual = 0.00551475, Final residual = 7.05506e-09, No Iterations 3
DILUPBiCGStab:  Solving for Uy, Initial residual = 0.00782417, Final residual = 1.09087e-09, No Iterations 3
DILUPBiCGStab:  Solving for O2, Initial residual = 0.0029551, Final residual = 2.48352e-09, No Iterations 3
DILUPBiCGStab:  Solving for H2O, Initial residual = 0.00295541, Final residual = 2.48354e-09, No Iterations 3
DILUPBiCGStab:  Solving for CH4, Initial residual = 0, Final residual = 0, No Iterations 0
DILUPBiCGStab:  Solving for CO2, Initial residual = 0.00295541, Final residual = 2.48354e-09, No Iterations 3
DILUPBiCGStab:  Solving for h, Initial residual = 0.00347428, Final residual = 2.95083e-09, No Iterations 3
min/max(T) = 299.58, 1044.98
GAMGPCG:  Solving for p_rgh, Initial residual = 0.019709, Final residual = 5.53385e-07, No Iterations 4
diagonal:  Solving for rho, Initial residual = 0, Final residual = 0, No Iterations 0
time step continuity errors : sum local = 3.0791e-08, global = -2.15892e-09, cumulative = -2.51102e-07
GAMGPCG:  Solving for p_rgh, Initial residual = 0.00245319, Final residual = 1.55159e-07, No Iterations 4
diagonal:  Solving for rho, Initial residual = 0, Final residual = 0, No Iterations 0
time step continuity errors : sum local = 8.21868e-09, global = 8.88192e-10, cumulative = -2.50214e-07
DILUPBiCGStab:  Solving for omega, Initial residual = 0.000120374, Final residual = 2.0829e-09, No Iterations 2
DILUPBiCGStab:  Solving for k, Initial residual = 0.00666017, Final residual = 3.54594e-09, No Iterations 3

ExecutionTime = 1.9 s  ClockTime = 2 s

    Overall     = 0.00164941, 0.01
Time = 264

diagonal:  Solving for rho, Initial residual = 0, Final residual = 0, No Iterations 0

Execution time for mesh.update() = 0 s

DILUPBiCGStab:  Solving for Ux, Initial residual = 0.00552716, Final residual = 7.28986e-09, No Iterations 3
DILUPBiCGStab:  Solving for Uy, Initial residual = 0.007849, Final residual = 1.46387e-09, No Iterations 3
DILUPBiCGStab:  Solving for O2, Initial residual = 0.00295177, Final residual = 2.33636e-09, No Iterations 3
DILUPBiCGStab:  Solving for H2O, Initial residual = 0.00295208, Final residual = 2.33639e-09, No Iterations 3
DILUPBiCGStab:  Solving for CH4, Initial residual = 0, Final residual = 0, No Iterations 0
DILUPBiCGStab:  Solving for CO2, Initial residual = 0.00295208, Final residual = 2.33639e-09, No Iterations 3
DILUPBiCGStab:  Solving for h, Initial residual = 0.00347403, Final residual = 2.49259e-09, No Iterations 3
min/max(T) = 299.573, 1044.98
GAMGPCG:  Solving for p_rgh, Initial residual = 0.0199056, Final residual = 8.3665e-07, No Iterations 4
diagonal:  Solving for rho, Initial residual = 0, Final residual = 0, No Iterations 0
time step continuity errors : sum local = 4.60772e-08, global = 4.60181e-09, cumulative = -2.45612e-07
GAMGPCG:  Solving for p_rgh, Initial residual = 0.00243841, Final residual = 1.24513e-07, No Iterations 4
diagonal:  Solving for rho, Initial residual = 0, Final residual = 0, No Iterations 0
time step continuity errors : sum local = 6.58455e-09, global = 8.52471e-10, cumulative = -2.44759e-07
DILUPBiCGStab:  Solving for omega, Initial residual = 0.000120283, Final residual = 2.0664e-09, No Iterations 2
DILUPBiCGStab:  Solving for k, Initial residual = 0.00668249, Final residual = 1.31139e-09, No Iterations 3

ExecutionTime = 2.01 s  ClockTime = 2 s

    Overall     = 0.00164294, 0.01
Time = 265

diagonal:  Solving for rho, Initial residual = 0, Final residual = 0, No Iterations 0

Execution time for mesh.update() = 0 s

DILUPBiCGStab:  Solving for Ux, Initial residual = 0.00553118, Final residual = 7.97962e-09, No Iterations 3
DILUPBiCGStab:  Solving for Uy, Initial residual = 0.00783813, Final residual = 1.0498e-09, No Iterations 3
DILUPBiCGStab:  Solving for O2, Initial residual = 0.00294908, Final residual = 2.33775e-09, No Iterations 3
DILUPBiCGStab:  Solving for H2O, Initial residual = 0.0029494, Final residual = 2.33778e-09, No Iterations 3
DILUPBiCGStab:  Solving for CH4, Initial residual = 0, Final residual = 0, No Iterations 0
DILUPBiCGStab:  Solving for CO2, Initial residual = 0.0029494, Final residual = 2.33778e-09, No Iterations 3
DILUPBiCGStab:  Solving for h, Initial residual = 0.00347321, Final residual = 2.32786e-09, No Iterations 3
min/max(T) = 299.571, 1044.98
GAMGPCG:  Solving for p_rgh, Initial residual = 0.0200264, Final residual = 5.62474e-07, No Iterations 4
diagonal:  Solving for rho, Initial residual = 0, Final residual = 0, No Iterations 0
time step continuity errors : sum local = 3.10498e-08, global = -1.28775e-09, cumulative = -2.46047e-07
GAMGPCG:  Solving for p_rgh, Initial residual = 0.00248371, Final residual = 1.14565e-07, No Iterations 4
diagonal:  Solving for rho, Initial residual = 0, Final residual = 0, No Iterations 0
time step continuity errors : sum local = 6.12214e-09, global = 6.0472e-10, cumulative = -2.45442e-07
DILUPBiCGStab:  Solving for omega, Initial residual = 0.000120795, Final residual = 1.96679e-09, No Iterations 2
DILUPBiCGStab:  Solving for k, Initial residual = 0.00669969, Final residual = 2.2676e-09, No Iterations 3

ExecutionTime = 2.13 s  ClockTime = 2 s

    Overall     = 0.00163607, 0.01
Time = 266

diagonal:  Solving for rho, Initial residual = 0, Final residual = 0, No Iterations 0

Execution time for mesh.update() = 0 s

DILUPBiCGStab:  Solving for Ux, Initial residual = 0.00555637, Final residual = 7.47835e-09, No Iterations 3
DILUPBiCGStab:  Solving for Uy, Initial residual = 0.00785164, Final residual = 1.13382e-09, No Iterations 3
DILUPBiCGStab:  Solving for O2, Initial residual = 0.00293906, Final residual = 2.48792e-09, No Iterations 3
DILUPBiCGStab:  Solving for H2O, Initial residual = 0.00293937, Final residual = 2.48795e-09, No Iterations 3
DILUPBiCGStab:  Solving for CH4, Initial residual = 0, Final residual = 0, No Iterations 0
DILUPBiCGStab:  Solving for CO2, Initial residual = 0.00293937, Final residual = 2.48795e-09, No Iterations 3
DILUPBiCGStab:  Solving for h, Initial residual = 0.0034684, Final residual = 2.5542e-09, No Iterations 3
min/max(T) = 299.562, 1044.98
GAMGPCG:  Solving for p_rgh, Initial residual = 0.0203583, Final residual = 8.50871e-07, No Iterations 4
diagonal:  Solving for rho, Initial residual = 0, Final residual = 0, No Iterations 0
time step continuity errors : sum local = 4.64727e-08, global = 2.91764e-09, cumulative = -2.42525e-07
GAMGPCG:  Solving for p_rgh, Initial residual = 0.00253236, Final residual = 1.13965e-07, No Iterations 4
diagonal:  Solving for rho, Initial residual = 0, Final residual = 0, No Iterations 0
time step continuity errors : sum local = 6.15644e-09, global = 7.1894e-10, cumulative = -2.41806e-07
DILUPBiCGStab:  Solving for omega, Initial residual = 0.000120891, Final residual = 2.04515e-09, No Iterations 2
DILUPBiCGStab:  Solving for k, Initial residual = 0.00672261, Final residual = 2.12051e-09, No Iterations 3

ExecutionTime = 2.24 s  ClockTime = 2 s

    Overall     = 0.00162832, 0.01
Time = 267

diagonal:  Solving for rho, Initial residual = 0, Final residual = 0, No Iterations 0

Execution time for mesh.update() = 0 s

DILUPBiCGStab:  Solving for Ux, Initial residual = 0.00556121, Final residual = 7.27252e-09, No Iterations 3
DILUPBiCGStab:  Solving for Uy, Initial residual = 0.00783273, Final residual = 9.23253e-10, No Iterations 3
DILUPBiCGStab:  Solving for O2, Initial residual = 0.00293849, Final residual = 2.80571e-09, No Iterations 3
DILUPBiCGStab:  Solving for H2O, Initial residual = 0.00293882, Final residual = 2.80577e-09, No Iterations 3
DILUPBiCGStab:  Solving for CH4, Initial residual = 0, Final residual = 0, No Iterations 0
DILUPBiCGStab:  Solving for CO2, Initial residual = 0.00293882, Final residual = 2.80577e-09, No Iterations 3
DILUPBiCGStab:  Solving for h, Initial residual = 0.00347166, Final residual = 2.91079e-09, No Iterations 3
min/max(T) = 299.559, 1044.98
GAMGPCG:  Solving for p_rgh, Initial residual = 0.0207243, Final residual = 6.24545e-07, No Iterations 4
diagonal:  Solving for rho, Initial residual = 0, Final residual = 0, No Iterations 0
time step continuity errors : sum local = 3.4412e-08, global = -2.31412e-09, cumulative = -2.4412e-07
GAMGPCG:  Solving for p_rgh, Initial residual = 0.00255227, Final residual = 1.2001e-07, No Iterations 4
diagonal:  Solving for rho, Initial residual = 0, Final residual = 0, No Iterations 0
time step continuity errors : sum local = 6.42302e-09, global = 6.31716e-10, cumulative = -2.43488e-07
DILUPBiCGStab:  Solving for omega, Initial residual = 0.000120429, Final residual = 2.13604e-09, No Iterations 2
DILUPBiCGStab:  Solving for k, Initial residual = 0.0067346, Final residual = 4.85909e-09, No Iterations 3

ExecutionTime = 2.36 s  ClockTime = 3 s

    Overall     = 0.00162037, 0.01
Time = 268

diagonal:  Solving for rho, Initial residual = 0, Final residual = 0, No Iterations 0

Execution time for mesh.update() = 0 s

DILUPBiCGStab:  Solving for Ux, Initial residual = 0.00558929, Final residual = 7.64492e-09, No Iterations 3
DILUPBiCGStab:  Solving for Uy, Initial residual = 0.00785667, Final residual = 8.52058e-10, No Iterations 3
DILUPBiCGStab:  Solving for O2, Initial residual = 0.00294054, Final residual = 3.22668e-09, No Iterations 3
DILUPBiCGStab:  Solving for H2O, Initial residual = 0.00294091, Final residual = 3.22696e-09, No Iterations 3
DILUPBiCGStab:  Solving for CH4, Initial residual = 0, Final residual = 0, No Iterations 0
DILUPBiCGStab:  Solving for CO2, Initial residual = 0.00294091, Final residual = 3.22696e-09, No Iterations 3
DILUPBiCGStab:  Solving for h, Initial residual = 0.00347802, Final residual = 3.19825e-09, No Iterations 3
min/max(T) = 299.549, 1044.98
GAMGPCG:  Solving for p_rgh, Initial residual = 0.0206566, Final residual = 8.11725e-07, No Iterations 4
diagonal:  Solving for rho, Initial residual = 0, Final residual = 0, No Iterations 0
time step continuity errors : sum local = 4.48305e-08, global = -3.44608e-09, cumulative = -2.46934e-07
GAMGPCG:  Solving for p_rgh, Initial residual = 0.00258505, Final residual = 1.11067e-07, No Iterations 4
diagonal:  Solving for rho, Initial residual = 0, Final residual = 0, No Iterations 0
time step continuity errors : sum local = 5.94455e-09, global = 7.53564e-10, cumulative = -2.46181e-07
DILUPBiCGStab:  Solving for omega, Initial residual = 0.000119901, Final residual = 2.18329e-09, No Iterations 2
DILUPBiCGStab:  Solving for k, Initial residual = 0.00676339, Final residual = 6.45129e-09, No Iterations 3

ExecutionTime = 2.47 s  ClockTime = 3 s

    Overall     = 0.001612, 0.01
Time = 269

diagonal:  Solving for rho, Initial residual = 0, Final residual = 0, No Iterations 0

Execution time for mesh.update() = 0 s

DILUPBiCGStab:  Solving for Ux, Initial residual = 0.00558907, Final residual = 6.95657e-09, No Iterations 3
DILUPBiCGStab:  Solving for Uy, Initial residual = 0.00784943, Final residual = 7.84797e-09, No Iterations 3
DILUPBiCGStab:  Solving for O2, Initial residual = 0.00294807, Final residual = 3.42542e-09, No Iterations 3
DILUPBiCGStab:  Solving for H2O, Initial residual = 0.00294842, Final residual = 3.42567e-09, No Iterations 3
DILUPBiCGStab:  Solving for CH4, Initial residual = 0, Final residual = 0, No Iterations 0
DILUPBiCGStab:  Solving for CO2, Initial residual = 0.00294842, Final residual = 3.42567e-09, No Iterations 3
DILUPBiCGStab:  Solving for h, Initial residual = 0.0034836, Final residual = 3.53536e-09, No Iterations 3
min/max(T) = 299.545, 1044.98
GAMGPCG:  Solving for p_rgh, Initial residual = 0.0209586, Final residual = 6.09282e-07, No Iterations 4
diagonal:  Solving for rho, Initial residual = 0, Final residual = 0, No Iterations 0
time step continuity errors : sum local = 3.40748e-08, global = -3.98813e-09, cumulative = -2.50169e-07
GAMGPCG:  Solving for p_rgh, Initial residual = 0.00259386, Final residual = 1.07907e-07, No Iterations 4
diagonal:  Solving for rho, Initial residual = 0, Final residual = 0, No Iterations 0
time step continuity errors : sum local = 5.9283e-09, global = 5.03397e-10, cumulative = -2.49665e-07
DILUPBiCGStab:  Solving for omega, Initial residual = 0.000119828, Final residual = 2.28709e-09, No Iterations 2
DILUPBiCGStab:  Solving for k, Initial residual = 0.00677654, Final residual = 4.70142e-09, No Iterations 3

ExecutionTime = 2.59 s  ClockTime = 3 s

    Overall     = 0.00160348, 0.01
Time = 270

diagonal:  Solving for rho, Initial residual = 0, Final residual = 0, No Iterations 0

Execution time for mesh.update() = 0 s

DILUPBiCGStab:  Solving for Ux, Initial residual = 0.00561324, Final residual = 6.26557e-09, No Iterations 3
DILUPBiCGStab:  Solving for Uy, Initial residual = 0.00786659, Final residual = 7.94392e-09, No Iterations 3
GAMGPCG:  Solving for G, Initial residual = 0.151475, Final residual = 3.65227e-05, No Iterations 6
DILUPBiCGStab:  Solving for O2, Initial residual = 0.00294861, Final residual = 3.61966e-09, No Iterations 3
DILUPBiCGStab:  Solving for H2O, Initial residual = 0.00294905, Final residual = 3.61996e-09, No Iterations 3
DILUPBiCGStab:  Solving for CH4, Initial residual = 0, Final residual = 0, No Iterations 0
DILUPBiCGStab:  Solving for CO2, Initial residual = 0.00294905, Final residual = 3.61996e-09, No Iterations 3
DILUPBiCGStab:  Solving for h, Initial residual = 0.00348824, Final residual = 3.84677e-09, No Iterations 3
min/max(T) = 299.534, 1044.98
GAMGPCG:  Solving for p_rgh, Initial residual = 0.0209119, Final residual = 7.2022e-07, No Iterations 4
diagonal:  Solving for rho, Initial residual = 0, Final residual = 0, No Iterations 0
time step continuity errors : sum local = 4.02185e-08, global = -5.26061e-09, cumulative = -2.54926e-07
GAMGPCG:  Solving for p_rgh, Initial residual = 0.00265691, Final residual = 1.16367e-07, No Iterations 4
diagonal:  Solving for rho, Initial residual = 0, Final residual = 0, No Iterations 0
time step continuity errors : sum local = 6.22765e-09, global = 8.61599e-10, cumulative = -2.54064e-07
DILUPBiCGStab:  Solving for omega, Initial residual = 0.000120716, Final residual = 2.46919e-09, No Iterations 2
DILUPBiCGStab:  Solving for k, Initial residual = 0.00679158, Final residual = 4.39456e-09, No Iterations 3

ExecutionTime = 2.84 s  ClockTime = 3 s

    Overall     = 0.00159509, 0.01
Time = 271

diagonal:  Solving for rho, Initial residual = 0, Final residual = 0, No Iterations 0

Execution time for mesh.update() = 0 s

DILUPBiCGStab:  Solving for Ux, Initial residual = 0.00561053, Final residual = 6.31146e-09, No Iterations 3
DILUPBiCGStab:  Solving for Uy, Initial residual = 0.00785045, Final residual = 7.86747e-09, No Iterations 3
DILUPBiCGStab:  Solving for O2, Initial residual = 0.00295058, Final residual = 4.38947e-09, No Iterations 3
DILUPBiCGStab:  Solving for H2O, Initial residual = 0.00295095, Final residual = 4.38987e-09, No Iterations 3
DILUPBiCGStab:  Solving for CH4, Initial residual = 0, Final residual = 0, No Iterations 0
DILUPBiCGStab:  Solving for CO2, Initial residual = 0.00295095, Final residual = 4.38988e-09, No Iterations 3
DILUPBiCGStab:  Solving for h, Initial residual = 0.00349038, Final residual = 4.52725e-09, No Iterations 3
min/max(T) = 299.528, 1044.98
GAMGPCG:  Solving for p_rgh, Initial residual = 0.0208502, Final residual = 5.83462e-07, No Iterations 4
diagonal:  Solving for rho, Initial residual = 0, Final residual = 0, No Iterations 0
time step continuity errors : sum local = 3.30034e-08, global = -4.05505e-09, cumulative = -2.58119e-07
GAMGPCG:  Solving for p_rgh, Initial residual = 0.00263147, Final residual = 9.98397e-08, No Iterations 4
diagonal:  Solving for rho, Initial residual = 0, Final residual = 0, No Iterations 0
time step continuity errors : sum local = 5.4817e-09, global = 5.35764e-10, cumulative = -2.57584e-07
DILUPBiCGStab:  Solving for omega, Initial residual = 0.00012053, Final residual = 2.46366e-09, No Iterations 2
DILUPBiCGStab:  Solving for k, Initial residual = 0.00678163, Final residual = 4.8145e-09, No Iterations 3

ExecutionTime = 2.95 s  ClockTime = 3 s

    Overall     = 0.00158617, 0.01
Time = 272

diagonal:  Solving for rho, Initial residual = 0, Final residual = 0, No Iterations 0

Execution time for mesh.update() = 0 s

DILUPBiCGStab:  Solving for Ux, Initial residual = 0.00563117, Final residual = 5.88942e-09, No Iterations 3
DILUPBiCGStab:  Solving for Uy, Initial residual = 0.00784991, Final residual = 7.65057e-09, No Iterations 3
DILUPBiCGStab:  Solving for O2, Initial residual = 0.00295039, Final residual = 4.67839e-09, No Iterations 3
DILUPBiCGStab:  Solving for H2O, Initial residual = 0.00295085, Final residual = 4.67889e-09, No Iterations 3
DILUPBiCGStab:  Solving for CH4, Initial residual = 0, Final residual = 0, No Iterations 0
DILUPBiCGStab:  Solving for CO2, Initial residual = 0.00295085, Final residual = 4.6789e-09, No Iterations 3
DILUPBiCGStab:  Solving for h, Initial residual = 0.00349214, Final residual = 4.74251e-09, No Iterations 3
min/max(T) = 299.518, 1044.98
GAMGPCG:  Solving for p_rgh, Initial residual = 0.0207252, Final residual = 6.51826e-07, No Iterations 4
diagonal:  Solving for rho, Initial residual = 0, Final residual = 0, No Iterations 0
time step continuity errors : sum local = 3.6861e-08, global = -5.3202e-09, cumulative = -2.62904e-07
GAMGPCG:  Solving for p_rgh, Initial residual = 0.00265935, Final residual = 1.32404e-07, No Iterations 4
diagonal:  Solving for rho, Initial residual = 0, Final residual = 0, No Iterations 0
time step continuity errors : sum local = 6.99679e-09, global = 1.03916e-09, cumulative = -2.61865e-07
DILUPBiCGStab:  Solving for omega, Initial residual = 0.000121237, Final residual = 2.39492e-09, No Iterations 2
DILUPBiCGStab:  Solving for k, Initial residual = 0.00680117, Final residual = 5.87944e-09, No Iterations 3

ExecutionTime = 3.07 s  ClockTime = 3 s

    Overall     = 0.00157757, 0.01
Time = 273

diagonal:  Solving for rho, Initial residual = 0, Final residual = 0, No Iterations 0

Execution time for mesh.update() = 0 s

DILUPBiCGStab:  Solving for Ux, Initial residual = 0.00563563, Final residual = 6.27307e-09, No Iterations 3
DILUPBiCGStab:  Solving for Uy, Initial residual = 0.00783607, Final residual = 7.87214e-09, No Iterations 3
DILUPBiCGStab:  Solving for O2, Initial residual = 0.00295263, Final residual = 4.69622e-09, No Iterations 3
DILUPBiCGStab:  Solving for H2O, Initial residual = 0.00295303, Final residual = 4.69672e-09, No Iterations 3
DILUPBiCGStab:  Solving for CH4, Initial residual = 0, Final residual = 0, No Iterations 0
DILUPBiCGStab:  Solving for CO2, Initial residual = 0.00295303, Final residual = 4.69673e-09, No Iterations 3
DILUPBiCGStab:  Solving for h, Initial residual = 0.00349613, Final residual = 4.8569e-09, No Iterations 3
min/max(T) = 299.512, 1044.98
GAMGPCG:  Solving for p_rgh, Initial residual = 0.0209903, Final residual = 5.67973e-07, No Iterations 4
diagonal:  Solving for rho, Initial residual = 0, Final residual = 0, No Iterations 0
time step continuity errors : sum local = 3.2238e-08, global = -3.54008e-09, cumulative = -2.65405e-07
GAMGPCG:  Solving for p_rgh, Initial residual = 0.0026522, Final residual = 1.18761e-07, No Iterations 4
diagonal:  Solving for rho, Initial residual = 0, Final residual = 0, No Iterations 0
time step continuity errors : sum local = 6.39564e-09, global = 6.72343e-10, cumulative = -2.64732e-07
DILUPBiCGStab:  Solving for omega, Initial residual = 0.000121197, Final residual = 2.32189e-09, No Iterations 2
DILUPBiCGStab:  Solving for k, Initial residual = 0.00682481, Final residual = 6.12642e-09, No Iterations 3

ExecutionTime = 3.18 s  ClockTime = 3 s

    Overall     = 0.00156848, 0.01
Time = 274

diagonal:  Solving for rho, Initial residual = 0, Final residual = 0, No Iterations 0

Execution time for mesh.update() = 0 s

DILUPBiCGStab:  Solving for Ux, Initial residual = 0.0056513, Final residual = 6.14804e-09, No Iterations 3
DILUPBiCGStab:  Solving for Uy, Initial residual = 0.00785114, Final residual = 8.17997e-09, No Iterations 3
DILUPBiCGStab:  Solving for O2, Initial residual = 0.002956, Final residual = 4.65325e-09, No Iterations 3
DILUPBiCGStab:  Solving for H2O, Initial residual = 0.00295648, Final residual = 4.65386e-09, No Iterations 3
DILUPBiCGStab:  Solving for CH4, Initial residual = 0, Final residual = 0, No Iterations 0
DILUPBiCGStab:  Solving for CO2, Initial residual = 0.00295648, Final residual = 4.65387e-09, No Iterations 3
DILUPBiCGStab:  Solving for h, Initial residual = 0.003503, Final residual = 4.53747e-09, No Iterations 3
min/max(T) = 299.501, 1044.98
GAMGPCG:  Solving for p_rgh, Initial residual = 0.0203948, Final residual = 6.24986e-07, No Iterations 4
diagonal:  Solving for rho, Initial residual = 0, Final residual = 0, No Iterations 0
time step continuity errors : sum local = 3.50684e-08, global = -3.95722e-09, cumulative = -2.6869e-07
GAMGPCG:  Solving for p_rgh, Initial residual = 0.002713, Final residual = 1.09966e-07, No Iterations 4
diagonal:  Solving for rho, Initial residual = 0, Final residual = 0, No Iterations 0
time step continuity errors : sum local = 5.82804e-09, global = 8.58086e-10, cumulative = -2.67832e-07
DILUPBiCGStab:  Solving for omega, Initial residual = 0.000122191, Final residual = 2.32612e-09, No Iterations 2
DILUPBiCGStab:  Solving for k, Initial residual = 0.00685853, Final residual = 7.53184e-09, No Iterations 3

ExecutionTime = 3.3 s  ClockTime = 4 s

    Overall     = 0.00155909, 0.01
Time = 275

diagonal:  Solving for rho, Initial residual = 0, Final residual = 0, No Iterations 0

Execution time for mesh.update() = 0 s

DILUPBiCGStab:  Solving for Ux, Initial residual = 0.00564621, Final residual = 7.45313e-09, No Iterations 3
DILUPBiCGStab:  Solving for Uy, Initial residual = 0.00779756, Final residual = 8.46038e-09, No Iterations 3
DILUPBiCGStab:  Solving for O2, Initial residual = 0.0029583, Final residual = 3.68803e-09, No Iterations 3
DILUPBiCGStab:  Solving for H2O, Initial residual = 0.00295872, Final residual = 3.68847e-09, No Iterations 3
DILUPBiCGStab:  Solving for CH4, Initial residual = 0, Final residual = 0, No Iterations 0
DILUPBiCGStab:  Solving for CO2, Initial residual = 0.00295872, Final residual = 3.68847e-09, No Iterations 3
DILUPBiCGStab:  Solving for h, Initial residual = 0.00350693, Final residual = 4.04237e-09, No Iterations 3
min/max(T) = 299.494, 1044.98
GAMGPCG:  Solving for p_rgh, Initial residual = 0.0204178, Final residual = 6.37406e-07, No Iterations 4
diagonal:  Solving for rho, Initial residual = 0, Final residual = 0, No Iterations 0
time step continuity errors : sum local = 3.56101e-08, global = -4.29675e-09, cumulative = -2.72128e-07
GAMGPCG:  Solving for p_rgh, Initial residual = 0.0027083, Final residual = 1.32062e-07, No Iterations 4
diagonal:  Solving for rho, Initial residual = 0, Final residual = 0, No Iterations 0
time step continuity errors : sum local = 7.10128e-09, global = 6.15784e-10, cumulative = -2.71513e-07
DILUPBiCGStab:  Solving for omega, Initial residual = 0.000121164, Final residual = 2.29338e-09, No Iterations 2
DILUPBiCGStab:  Solving for k, Initial residual = 0.00687603, Final residual = 7.85137e-09, No Iterations 3

ExecutionTime = 3.42 s  ClockTime = 4 s

    Overall     = 0.00154956, 0.01
Time = 276

diagonal:  Solving for rho, Initial residual = 0, Final residual = 0, No Iterations 0

Execution time for mesh.update() = 0 s

DILUPBiCGStab:  Solving for Ux, Initial residual = 0.00565703, Final residual = 7.0858e-09, No Iterations 3
DILUPBiCGStab:  Solving for Uy, Initial residual = 0.00778842, Final residual = 8.40328e-09, No Iterations 3
DILUPBiCGStab:  Solving for O2, Initial residual = 0.00296128, Final residual = 3.30377e-09, No Iterations 3
DILUPBiCGStab:  Solving for H2O, Initial residual = 0.0029617, Final residual = 3.30424e-09, No Iterations 3
DILUPBiCGStab:  Solving for CH4, Initial residual = 0, Final residual = 0, No Iterations 0
DILUPBiCGStab:  Solving for CO2, Initial residual = 0.0029617, Final residual = 3.30424e-09, No Iterations 3
DILUPBiCGStab:  Solving for h, Initial residual = 0.00351405, Final residual = 3.7526e-09, No Iterations 3
min/max(T) = 299.484, 1044.98
GAMGPCG:  Solving for p_rgh, Initial residual = 0.0202638, Final residual = 6.63053e-07, No Iterations 4
diagonal:  Solving for rho, Initial residual = 0, Final residual = 0, No Iterations 0
time step continuity errors : sum local = 3.70257e-08, global = -3.79267e-09, cumulative = -2.75305e-07
GAMGPCG:  Solving for p_rgh, Initial residual = 0.00269159, Final residual = 1.11653e-07, No Iterations 4
diagonal:  Solving for rho, Initial residual = 0, Final residual = 0, No Iterations 0
time step continuity errors : sum local = 5.99975e-09, global = 7.21497e-10, cumulative = -2.74584e-07
DILUPBiCGStab:  Solving for omega, Initial residual = 0.000120597, Final residual = 2.23285e-09, No Iterations 2
DILUPBiCGStab:  Solving for k, Initial residual = 0.00689967, Final residual = 9.85811e-10, No Iterations 3

ExecutionTime = 3.53 s  ClockTime = 4 s

    Overall     = 0.00154, 0.01
Time = 277

diagonal:  Solving for rho, Initial residual = 0, Final residual = 0, No Iterations 0

Execution time for mesh.update() = 0 s

DILUPBiCGStab:  Solving for Ux, Initial residual = 0.00567736, Final residual = 7.44066e-09, No Iterations 3
DILUPBiCGStab:  Solving for Uy, Initial residual = 0.00776096, Final residual = 8.857e-09, No Iterations 3
DILUPBiCGStab:  Solving for O2, Initial residual = 0.00296897, Final residual = 3.2188e-09, No Iterations 3
DILUPBiCGStab:  Solving for H2O, Initial residual = 0.0029694, Final residual = 3.21907e-09, No Iterations 3
DILUPBiCGStab:  Solving for CH4, Initial residual = 0, Final residual = 0, No Iterations 0
DILUPBiCGStab:  Solving for CO2, Initial residual = 0.0029694, Final residual = 3.21907e-09, No Iterations 3
DILUPBiCGStab:  Solving for h, Initial residual = 0.00352158, Final residual = 3.56312e-09, No Iterations 3
min/max(T) = 299.475, 1044.98
GAMGPCG:  Solving for p_rgh, Initial residual = 0.0205286, Final residual = 5.48208e-07, No Iterations 4
diagonal:  Solving for rho, Initial residual = 0, Final residual = 0, No Iterations 0
time step continuity errors : sum local = 3.05316e-08, global = -2.99662e-09, cumulative = -2.7758e-07
GAMGPCG:  Solving for p_rgh, Initial residual = 0.00267066, Final residual = 1.05973e-07, No Iterations 4
diagonal:  Solving for rho, Initial residual = 0, Final residual = 0, No Iterations 0
time step continuity errors : sum local = 5.78045e-09, global = 4.41888e-10, cumulative = -2.77138e-07
DILUPBiCGStab:  Solving for omega, Initial residual = 0.000121304, Final residual = 2.1522e-09, No Iterations 2
DILUPBiCGStab:  Solving for k, Initial residual = 0.00693113, Final residual = 1.64763e-09, No Iterations 3

ExecutionTime = 3.65 s  ClockTime = 4 s

    Overall     = 0.00153121, 0.01
Time = 278

diagonal:  Solving for rho, Initial residual = 0, Final residual = 0, No Iterations 0

Execution time for mesh.update() = 0 s

DILUPBiCGStab:  Solving for Ux, Initial residual = 0.0056919, Final residual = 7.11798e-09, No Iterations 3
DILUPBiCGStab:  Solving for Uy, Initial residual = 0.00777005, Final residual = 8.84664e-09, No Iterations 3
DILUPBiCGStab:  Solving for O2, Initial residual = 0.00296653, Final residual = 3.71484e-09, No Iterations 3
DILUPBiCGStab:  Solving for H2O, Initial residual = 0.00296697, Final residual = 3.71521e-09, No Iterations 3
DILUPBiCGStab:  Solving for CH4, Initial residual = 0, Final residual = 0, No Iterations 0
DILUPBiCGStab:  Solving for CO2, Initial residual = 0.00296697, Final residual = 3.71521e-09, No Iterations 3
DILUPBiCGStab:  Solving for h, Initial residual = 0.00352327, Final residual = 3.56465e-09, No Iterations 3
min/max(T) = 299.468, 1044.98
GAMGPCG:  Solving for p_rgh, Initial residual = 0.0201058, Final residual = 6.76171e-07, No Iterations 4
diagonal:  Solving for rho, Initial residual = 0, Final residual = 0, No Iterations 0
time step continuity errors : sum local = 3.75338e-08, global = -4.42311e-09, cumulative = -2.81562e-07
GAMGPCG:  Solving for p_rgh, Initial residual = 0.00268688, Final residual = 1.22512e-07, No Iterations 4
diagonal:  Solving for rho, Initial residual = 0, Final residual = 0, No Iterations 0
time step continuity errors : sum local = 6.638e-09, global = 7.65939e-10, cumulative = -2.80796e-07
DILUPBiCGStab:  Solving for omega, Initial residual = 0.000121433, Final residual = 2.07491e-09, No Iterations 2
DILUPBiCGStab:  Solving for k, Initial residual = 0.00695593, Final residual = 2.15651e-09, No Iterations 3

ExecutionTime = 3.76 s  ClockTime = 4 s

    Overall     = 0.00152191, 0.01
Time = 279

diagonal:  Solving for rho, Initial residual = 0, Final residual = 0, No Iterations 0

Execution time for mesh.update() = 0 s

DILUPBiCGStab:  Solving for Ux, Initial residual = 0.00569442, Final residual = 6.89412e-09, No Iterations 3
DILUPBiCGStab:  Solving for Uy, Initial residual = 0.00773553, Final residual = 1.04084e-09, No Iterations 3
DILUPBiCGStab:  Solving for O2, Initial residual = 0.00297477, Final residual = 3.55394e-09, No Iterations 3
DILUPBiCGStab:  Solving for H2O, Initial residual = 0.00297522, Final residual = 3.55417e-09, No Iterations 3
DILUPBiCGStab:  Solving for CH4, Initial residual = 0, Final residual = 0, No Iterations 0
DILUPBiCGStab:  Solving for CO2, Initial residual = 0.00297522, Final residual = 3.55417e-09, No Iterations 3
DILUPBiCGStab:  Solving for h, Initial residual = 0.0035312, Final residual = 3.49914e-09, No Iterations 3
min/max(T) = 299.46, 1044.98
GAMGPCG:  Solving for p_rgh, Initial residual = 0.0201448, Final residual = 5.98681e-07, No Iterations 4
diagonal:  Solving for rho, Initial residual = 0, Final residual = 0, No Iterations 0
time step continuity errors : sum local = 3.33569e-08, global = -2.14397e-09, cumulative = -2.8294e-07
GAMGPCG:  Solving for p_rgh, Initial residual = 0.00262587, Final residual = 1.29727e-07, No Iterations 4
diagonal:  Solving for rho, Initial residual = 0, Final residual = 0, No Iterations 0
time step continuity errors : sum local = 7.15924e-09, global = 4.6682e-10, cumulative = -2.82473e-07
DILUPBiCGStab:  Solving for omega, Initial residual = 0.000120971, Final residual = 2.00576e-09, No Iterations 2
DILUPBiCGStab:  Solving for k, Initial residual = 0.0069724, Final residual = 9.22486e-09, No Iterations 3

ExecutionTime = 3.88 s  ClockTime = 4 s

    Overall     = 0.00151455, 0.01
Time = 280

diagonal:  Solving for rho, Initial residual = 0, Final residual = 0, No Iterations 0

Execution time for mesh.update() = 0 s

DILUPBiCGStab:  Solving for Ux, Initial residual = 0.005697, Final residual = 6.6557e-09, No Iterations 3
DILUPBiCGStab:  Solving for Uy, Initial residual = 0.00774407, Final residual = 1.22675e-09, No Iterations 3
GAMGPCG:  Solving for G, Initial residual = 0.195263, Final residual = 4.40431e-05, No Iterations 6
DILUPBiCGStab:  Solving for O2, Initial residual = 0.00297968, Final residual = 3.05562e-09, No Iterations 3
DILUPBiCGStab:  Solving for H2O, Initial residual = 0.00298013, Final residual = 3.05573e-09, No Iterations 3
DILUPBiCGStab:  Solving for CH4, Initial residual = 0, Final residual = 0, No Iterations 0
DILUPBiCGStab:  Solving for CO2, Initial residual = 0.00298013, Final residual = 3.05573e-09, No Iterations 3
DILUPBiCGStab:  Solving for h, Initial residual = 0.00353984, Final residual = 3.16995e-09, No Iterations 3
min/max(T) = 299.453, 1044.98
GAMGPCG:  Solving for p_rgh, Initial residual = 0.0197484, Final residual = 6.29032e-07, No Iterations 4
diagonal:  Solving for rho, Initial residual = 0, Final residual = 0, No Iterations 0
time step continuity errors : sum local = 3.49558e-08, global = -3.47633e-09, cumulative = -2.85949e-07
GAMGPCG:  Solving for p_rgh, Initial residual = 0.00263837, Final residual = 1.21827e-07, No Iterations 4
diagonal:  Solving for rho, Initial residual = 0, Final residual = 0, No Iterations 0
time step continuity errors : sum local = 6.73811e-09, global = 6.24652e-10, cumulative = -2.85324e-07
DILUPBiCGStab:  Solving for omega, Initial residual = 0.000121598, Final residual = 2.00828e-09, No Iterations 2
DILUPBiCGStab:  Solving for k, Initial residual = 0.0069804, Final residual = 5.67527e-09, No Iterations 3

ExecutionTime = 4.12 s  ClockTime = 4 s

    Overall     = 0.00150588, 0.01
Time = 281

diagonal:  Solving for rho, Initial residual = 0, Final residual = 0, No Iterations 0

Execution time for mesh.update() = 0 s

DILUPBiCGStab:  Solving for Ux, Initial residual = 0.00568757, Final residual = 6.30675e-09, No Iterations 3
DILUPBiCGStab:  Solving for Uy, Initial residual = 0.00767634, Final residual = 1.15831e-09, No Iterations 3
DILUPBiCGStab:  Solving for O2, Initial residual = 0.00298447, Final residual = 3.20632e-09, No Iterations 3
DILUPBiCGStab:  Solving for H2O, Initial residual = 0.00298493, Final residual = 3.20636e-09, No Iterations 3
DILUPBiCGStab:  Solving for CH4, Initial residual = 0, Final residual = 0, No Iterations 0
DILUPBiCGStab:  Solving for CO2, Initial residual = 0.00298493, Final residual = 3.20636e-09, No Iterations 3
DILUPBiCGStab:  Solving for h, Initial residual = 0.0035489, Final residual = 3.21952e-09, No Iterations 3
min/max(T) = 299.449, 1044.98
GAMGPCG:  Solving for p_rgh, Initial residual = 0.0200649, Final residual = 5.93958e-07, No Iterations 4
diagonal:  Solving for rho, Initial residual = 0, Final residual = 0, No Iterations 0
time step continuity errors : sum local = 3.30095e-08, global = -1.05172e-09, cumulative = -2.86376e-07
GAMGPCG:  Solving for p_rgh, Initial residual = 0.00264757, Final residual = 1.87066e-07, No Iterations 4
diagonal:  Solving for rho, Initial residual = 0, Final residual = 0, No Iterations 0
time step continuity errors : sum local = 1.01136e-08, global = 1.10727e-09, cumulative = -2.85269e-07
DILUPBiCGStab:  Solving for omega, Initial residual = 0.000122105, Final residual = 1.91465e-09, No Iterations 2
DILUPBiCGStab:  Solving for k, Initial residual = 0.00698543, Final residual = 4.87856e-09, No Iterations 3

ExecutionTime = 4.25 s  ClockTime = 4 s

    Overall     = 0.00149944, 0.01
Time = 282

diagonal:  Solving for rho, Initial residual = 0, Final residual = 0, No Iterations 0

Execution time for mesh.update() = 0 s

DILUPBiCGStab:  Solving for Ux, Initial residual = 0.00569861, Final residual = 6.29102e-09, No Iterations 3
DILUPBiCGStab:  Solving for Uy, Initial residual = 0.00767522, Final residual = 9.85389e-09, No Iterations 3
DILUPBiCGStab:  Solving for O2, Initial residual = 0.00298629, Final residual = 3.15311e-09, No Iterations 3
DILUPBiCGStab:  Solving for H2O, Initial residual = 0.00298676, Final residual = 3.15322e-09, No Iterations 3
DILUPBiCGStab:  Solving for CH4, Initial residual = 0, Final residual = 0, No Iterations 0
DILUPBiCGStab:  Solving for CO2, Initial residual = 0.00298676, Final residual = 3.15322e-09, No Iterations 3
DILUPBiCGStab:  Solving for h, Initial residual = 0.00355569, Final residual = 3.13864e-09, No Iterations 3
min/max(T) = 299.439, 1044.98
GAMGPCG:  Solving for p_rgh, Initial residual = 0.0197946, Final residual = 5.96046e-07, No Iterations 4
diagonal:  Solving for rho, Initial residual = 0, Final residual = 0, No Iterations 0
time step continuity errors : sum local = 3.30013e-08, global = -2.44742e-09, cumulative = -2.87716e-07
GAMGPCG:  Solving for p_rgh, Initial residual = 0.00266634, Final residual = 1.49268e-07, No Iterations 4
diagonal:  Solving for rho, Initial residual = 0, Final residual = 0, No Iterations 0
time step continuity errors : sum local = 8.18714e-09, global = 8.69246e-10, cumulative = -2.86847e-07
DILUPBiCGStab:  Solving for omega, Initial residual = 0.000121939, Final residual = 1.96141e-09, No Iterations 2
DILUPBiCGStab:  Solving for k, Initial residual = 0.00699149, Final residual = 4.51786e-09, No Iterations 3

ExecutionTime = 4.37 s  ClockTime = 5 s

    Overall     = 0.00149265, 0.01
Time = 283

diagonal:  Solving for rho, Initial residual = 0, Final residual = 0, No Iterations 0

Execution time for mesh.update() = 0 s

DILUPBiCGStab:  Solving for Ux, Initial residual = 0.00570218, Final residual = 6.1614e-09, No Iterations 3
DILUPBiCGStab:  Solving for Uy, Initial residual = 0.00761751, Final residual = 8.07677e-09, No Iterations 3
DILUPBiCGStab:  Solving for O2, Initial residual = 0.0029927, Final residual = 3.24833e-09, No Iterations 3
DILUPBiCGStab:  Solving for H2O, Initial residual = 0.00299317, Final residual = 3.2483e-09, No Iterations 3
DILUPBiCGStab:  Solving for CH4, Initial residual = 0, Final residual = 0, No Iterations 0
DILUPBiCGStab:  Solving for CO2, Initial residual = 0.00299317, Final residual = 3.2483e-09, No Iterations 3
DILUPBiCGStab:  Solving for h, Initial residual = 0.00356809, Final residual = 3.36734e-09, No Iterations 3
min/max(T) = 299.438, 1044.98
GAMGPCG:  Solving for p_rgh, Initial residual = 0.0202505, Final residual = 5.67165e-07, No Iterations 4
diagonal:  Solving for rho, Initial residual = 0, Final residual = 0, No Iterations 0
time step continuity errors : sum local = 3.1335e-08, global = -2.23729e-10, cumulative = -2.87071e-07
GAMGPCG:  Solving for p_rgh, Initial residual = 0.00265549, Final residual = 1.66538e-07, No Iterations 4
diagonal:  Solving for rho, Initial residual = 0, Final residual = 0, No Iterations 0
time step continuity errors : sum local = 9.0606e-09, global = 9.88725e-10, cumulative = -2.86082e-07
DILUPBiCGStab:  Solving for omega, Initial residual = 0.000121995, Final residual = 1.95306e-09, No Iterations 2
DILUPBiCGStab:  Solving for k, Initial residual = 0.00700362, Final residual = 4.30896e-09, No Iterations 3

ExecutionTime = 4.48 s  ClockTime = 5 s

    Overall     = 0.00148707, 0.01
Time = 284

diagonal:  Solving for rho, Initial residual = 0, Final residual = 0, No Iterations 0

Execution time for mesh.update() = 0 s

DILUPBiCGStab:  Solving for Ux, Initial residual = 0.00571183, Final residual = 6.06438e-09, No Iterations 3
DILUPBiCGStab:  Solving for Uy, Initial residual = 0.00762509, Final residual = 7.07557e-09, No Iterations 3
DILUPBiCGStab:  Solving for O2, Initial residual = 0.00299503, Final residual = 3.98648e-09, No Iterations 3
DILUPBiCGStab:  Solving for H2O, Initial residual = 0.00299543, Final residual = 3.9863e-09, No Iterations 3
DILUPBiCGStab:  Solving for CH4, Initial residual = 0, Final residual = 0, No Iterations 0
DILUPBiCGStab:  Solving for CO2, Initial residual = 0.00299543, Final residual = 3.9863e-09, No Iterations 3
DILUPBiCGStab:  Solving for h, Initial residual = 0.00357367, Final residual = 4.07244e-09, No Iterations 3
min/max(T) = 299.431, 1044.98
GAMGPCG:  Solving for p_rgh, Initial residual = 0.0199199, Final residual = 6.11576e-07, No Iterations 4
diagonal:  Solving for rho, Initial residual = 0, Final residual = 0, No Iterations 0
time step continuity errors : sum local = 3.37849e-08, global = -2.12197e-09, cumulative = -2.88204e-07
GAMGPCG:  Solving for p_rgh, Initial residual = 0.00264044, Final residual = 1.90029e-07, No Iterations 4
diagonal:  Solving for rho, Initial residual = 0, Final residual = 0, No Iterations 0
time step continuity errors : sum local = 1.03432e-08, global = 1.183e-09, cumulative = -2.87021e-07
DILUPBiCGStab:  Solving for omega, Initial residual = 0.000122532, Final residual = 1.86342e-09, No Iterations 2
DILUPBiCGStab:  Solving for k, Initial residual = 0.00701246, Final residual = 4.37474e-09, No Iterations 3

ExecutionTime = 4.6 s  ClockTime = 5 s

    Overall     = 0.00147954, 0.01
Time = 285

diagonal:  Solving for rho, Initial residual = 0, Final residual = 0, No Iterations 0

Execution time for mesh.update() = 0 s

DILUPBiCGStab:  Solving for Ux, Initial residual = 0.00572326, Final residual = 6.14584e-09, No Iterations 3
DILUPBiCGStab:  Solving for Uy, Initial residual = 0.00757017, Final residual = 6.20988e-09, No Iterations 3
DILUPBiCGStab:  Solving for O2, Initial residual = 0.00299948, Final residual = 4.56926e-09, No Iterations 3
DILUPBiCGStab:  Solving for H2O, Initial residual = 0.00299996, Final residual = 4.56874e-09, No Iterations 3
DILUPBiCGStab:  Solving for CH4, Initial residual = 0, Final residual = 0, No Iterations 0
DILUPBiCGStab:  Solving for CO2, Initial residual = 0.00299996, Final residual = 4.56874e-09, No Iterations 3
DILUPBiCGStab:  Solving for h, Initial residual = 0.00358371, Final residual = 4.59957e-09, No Iterations 3
min/max(T) = 299.431, 1044.98
GAMGPCG:  Solving for p_rgh, Initial residual = 0.0201899, Final residual = 4.95018e-07, No Iterations 4
diagonal:  Solving for rho, Initial residual = 0, Final residual = 0, No Iterations 0
time step continuity errors : sum local = 2.72103e-08, global = -7.44998e-10, cumulative = -2.87766e-07
GAMGPCG:  Solving for p_rgh, Initial residual = 0.00265329, Final residual = 2.14213e-07, No Iterations 4
diagonal:  Solving for rho, Initial residual = 0, Final residual = 0, No Iterations 0
time step continuity errors : sum local = 1.1573e-08, global = 1.25462e-09, cumulative = -2.86511e-07
DILUPBiCGStab:  Solving for omega, Initial residual = 0.000121851, Final residual = 1.84777e-09, No Iterations 2
DILUPBiCGStab:  Solving for k, Initial residual = 0.00703154, Final residual = 3.96608e-09, No Iterations 3

ExecutionTime = 4.71 s  ClockTime = 5 s

    Overall     = 0.00147391, 0.01
Time = 286

diagonal:  Solving for rho, Initial residual = 0, Final residual = 0, No Iterations 0

Execution time for mesh.update() = 0 s

DILUPBiCGStab:  Solving for Ux, Initial residual = 0.00573202, Final residual = 5.70313e-09, No Iterations 3
DILUPBiCGStab:  Solving for Uy, Initial residual = 0.00760358, Final residual = 6.28848e-09, No Iterations 3
DILUPBiCGStab:  Solving for O2, Initial residual = 0.00300364, Final residual = 4.00362e-09, No Iterations 3
DILUPBiCGStab:  Solving for H2O, Initial residual = 0.00300413, Final residual = 4.00313e-09, No Iterations 3
DILUPBiCGStab:  Solving for CH4, Initial residual = 0, Final residual = 0, No Iterations 0
DILUPBiCGStab:  Solving for CO2, Initial residual = 0.00300413, Final residual = 4.00313e-09, No Iterations 3
DILUPBiCGStab:  Solving for h, Initial residual = 0.00359193, Final residual = 3.85179e-09, No Iterations 3
min/max(T) = 299.421, 1044.98
GAMGPCG:  Solving for p_rgh, Initial residual = 0.0205521, Final residual = 6.42523e-07, No Iterations 4
diagonal:  Solving for rho, Initial residual = 0, Final residual = 0, No Iterations 0
time step continuity errors : sum local = 3.55613e-08, global = -2.98164e-09, cumulative = -2.89493e-07
GAMGPCG:  Solving for p_rgh, Initial residual = 0.00267703, Final residual = 2.5436e-07, No Iterations 4
diagonal:  Solving for rho, Initial residual = 0, Final residual = 0, No Iterations 0
time step continuity errors : sum local = 1.3748e-08, global = 1.54572e-09, cumulative = -2.87947e-07
DILUPBiCGStab:  Solving for omega, Initial residual = 0.00012169, Final residual = 1.75277e-09, No Iterations 2
DILUPBiCGStab:  Solving for k, Initial residual = 0.00704584, Final residual = 3.76949e-09, No Iterations 3

ExecutionTime = 4.83 s  ClockTime = 5 s

    Overall     = 0.00146802, 0.01
Time = 287

diagonal:  Solving for rho, Initial residual = 0, Final residual = 0, No Iterations 0

Execution time for mesh.update() = 0 s

DILUPBiCGStab:  Solving for Ux, Initial residual = 0.00573585, Final residual = 5.05184e-09, No Iterations 3
DILUPBiCGStab:  Solving for Uy, Initial residual = 0.00757871, Final residual = 5.68677e-09, No Iterations 3
DILUPBiCGStab:  Solving for O2, Initial residual = 0.00300948, Final residual = 3.14809e-09, No Iterations 3
DILUPBiCGStab:  Solving for H2O, Initial residual = 0.00300996, Final residual = 3.14779e-09, No Iterations 3
DILUPBiCGStab:  Solving for CH4, Initial residual = 0, Final residual = 0, No Iterations 0
DILUPBiCGStab:  Solving for CO2, Initial residual = 0.00300996, Final residual = 3.14779e-09, No Iterations 3
DILUPBiCGStab:  Solving for h, Initial residual = 0.00360256, Final residual = 3.07831e-09, No Iterations 3
min/max(T) = 299.424, 1044.98
GAMGPCG:  Solving for p_rgh, Initial residual = 0.0205266, Final residual = 6.09314e-07, No Iterations 4
diagonal:  Solving for rho, Initial residual = 0, Final residual = 0, No Iterations 0
time step continuity errors : sum local = 3.3652e-08, global = -2.32329e-09, cumulative = -2.90271e-07
GAMGPCG:  Solving for p_rgh, Initial residual = 0.00277558, Final residual = 2.77546e-07, No Iterations 4
diagonal:  Solving for rho, Initial residual = 0, Final residual = 0, No Iterations 0
time step continuity errors : sum local = 1.48988e-08, global = 1.50125e-09, cumulative = -2.88769e-07
DILUPBiCGStab:  Solving for omega, Initial residual = 0.00012249, Final residual = 1.75559e-09, No Iterations 2
DILUPBiCGStab:  Solving for k, Initial residual = 0.00706529, Final residual = 3.75891e-09, No Iterations 3

ExecutionTime = 4.94 s  ClockTime = 5 s

    Overall     = 0.00146402, 0.01
Time = 288

diagonal:  Solving for rho, Initial residual = 0, Final residual = 0, No Iterations 0

Execution time for mesh.update() = 0 s

DILUPBiCGStab:  Solving for Ux, Initial residual = 0.00572293, Final residual = 4.68111e-09, No Iterations 3
DILUPBiCGStab:  Solving for Uy, Initial residual = 0.00756178, Final residual = 5.80797e-09, No Iterations 3
DILUPBiCGStab:  Solving for O2, Initial residual = 0.00301389, Final residual = 2.28582e-09, No Iterations 3
DILUPBiCGStab:  Solving for H2O, Initial residual = 0.00301437, Final residual = 2.28587e-09, No Iterations 3
DILUPBiCGStab:  Solving for CH4, Initial residual = 0, Final residual = 0, No Iterations 0
DILUPBiCGStab:  Solving for CO2, Initial residual = 0.00301437, Final residual = 2.28587e-09, No Iterations 3
DILUPBiCGStab:  Solving for h, Initial residual = 0.00360995, Final residual = 2.23211e-09, No Iterations 3
min/max(T) = 299.415, 1044.98
GAMGPCG:  Solving for p_rgh, Initial residual = 0.0203861, Final residual = 7.1116e-07, No Iterations 4
diagonal:  Solving for rho, Initial residual = 0, Final residual = 0, No Iterations 0
time step continuity errors : sum local = 3.94528e-08, global = -3.72052e-09, cumulative = -2.9249e-07
GAMGPCG:  Solving for p_rgh, Initial residual = 0.00271656, Final residual = 2.87673e-07, No Iterations 4
diagonal:  Solving for rho, Initial residual = 0, Final residual = 0, No Iterations 0
time step continuity errors : sum local = 1.545e-08, global = 1.45092e-09, cumulative = -2.91039e-07
DILUPBiCGStab:  Solving for omega, Initial residual = 0.000121702, Final residual = 1.67257e-09, No Iterations 2
DILUPBiCGStab:  Solving for k, Initial residual = 0.00709105, Final residual = 3.73681e-09, No Iterations 3

ExecutionTime = 5.06 s  ClockTime = 5 s

    Overall     = 0.00145574, 0.01
Time = 289

diagonal:  Solving for rho, Initial residual = 0, Final residual = 0, No Iterations 0

Execution time for mesh.update() = 0 s

DILUPBiCGStab:  Solving for Ux, Initial residual = 0.00571798, Final residual = 3.98363e-09, No Iterations 3
DILUPBiCGStab:  Solving for Uy, Initial residual = 0.00754703, Final residual = 6.0362e-09, No Iterations 3
DILUPBiCGStab:  Solving for O2, Initial residual = 0.00302576, Final residual = 2.1904e-09, No Iterations 3
DILUPBiCGStab:  Solving for H2O, Initial residual = 0.00302625, Final residual = 2.19043e-09, No Iterations 3
DILUPBiCGStab:  Solving for CH4, Initial residual = 0, Final residual = 0, No Iterations 0
DILUPBiCGStab:  Solving for CO2, Initial residual = 0.00302625, Final residual = 2.19043e-09, No Iterations 3
DILUPBiCGStab:  Solving for h, Initial residual = 0.00362822, Final residual = 2.14641e-09, No Iterations 3
min/max(T) = 299.419, 1044.98
GAMGPCG:  Solving for p_rgh, Initial residual = 0.0202321, Final residual = 6.93983e-07, No Iterations 4
diagonal:  Solving for rho, Initial residual = 0, Final residual = 0, No Iterations 0
time step continuity errors : sum local = 3.81615e-08, global = -1.7077e-09, cumulative = -2.92747e-07
GAMGPCG:  Solving for p_rgh, Initial residual = 0.00274168, Final residual = 3.24449e-07, No Iterations 4
diagonal:  Solving for rho, Initial residual = 0, Final residual = 0, No Iterations 0
time step continuity errors : sum local = 1.72902e-08, global = 1.28011e-09, cumulative = -2.91467e-07
DILUPBiCGStab:  Solving for omega, Initial residual = 0.000122744, Final residual = 1.66637e-09, No Iterations 2
DILUPBiCGStab:  Solving for k, Initial residual = 0.00709421, Final residual = 3.08634e-09, No Iterations 3

ExecutionTime = 5.17 s  ClockTime = 5 s

    Overall     = 0.00145176, 0.01
Time = 290

diagonal:  Solving for rho, Initial residual = 0, Final residual = 0, No Iterations 0

Execution time for mesh.update() = 0 s

DILUPBiCGStab:  Solving for Ux, Initial residual = 0.00571089, Final residual = 3.59841e-09, No Iterations 3
DILUPBiCGStab:  Solving for Uy, Initial residual = 0.0075087, Final residual = 6.24615e-09, No Iterations 3
GAMGPCG:  Solving for G, Initial residual = 0.200374, Final residual = 9.02674e-05, No Iterations 5
DILUPBiCGStab:  Solving for O2, Initial residual = 0.00302521, Final residual = 2.08984e-09, No Iterations 3
DILUPBiCGStab:  Solving for H2O, Initial residual = 0.00302569, Final residual = 2.08984e-09, No Iterations 3
DILUPBiCGStab:  Solving for CH4, Initial residual = 0, Final residual = 0, No Iterations 0
DILUPBiCGStab:  Solving for CO2, Initial residual = 0.00302569, Final residual = 2.08984e-09, No Iterations 3
DILUPBiCGStab:  Solving for h, Initial residual = 0.00362516, Final residual = 2.01652e-09, No Iterations 3
min/max(T) = 299.407, 1044.98
GAMGPCG:  Solving for p_rgh, Initial residual = 0.0203719, Final residual = 8.54281e-07, No Iterations 4
diagonal:  Solving for rho, Initial residual = 0, Final residual = 0, No Iterations 0
time step continuity errors : sum local = 4.67608e-08, global = -4.19059e-09, cumulative = -2.95657e-07
GAMGPCG:  Solving for p_rgh, Initial residual = 0.00264802, Final residual = 3.22421e-07, No Iterations 4
diagonal:  Solving for rho, Initial residual = 0, Final residual = 0, No Iterations 0
time step continuity errors : sum local = 1.71709e-08, global = 1.13655e-09, cumulative = -2.94521e-07
DILUPBiCGStab:  Solving for omega, Initial residual = 0.000121495, Final residual = 1.57663e-09, No Iterations 2
DILUPBiCGStab:  Solving for k, Initial residual = 0.00708764, Final residual = 2.71423e-09, No Iterations 3

ExecutionTime = 5.42 s  ClockTime = 6 s

    Overall     = 0.00144316, 0.01
Time = 291

diagonal:  Solving for rho, Initial residual = 0, Final residual = 0, No Iterations 0

Execution time for mesh.update() = 0 s

DILUPBiCGStab:  Solving for Ux, Initial residual = 0.0057231, Final residual = 3.36866e-09, No Iterations 3
DILUPBiCGStab:  Solving for Uy, Initial residual = 0.00750688, Final residual = 6.18258e-09, No Iterations 3
DILUPBiCGStab:  Solving for O2, Initial residual = 0.00303567, Final residual = 2.02454e-09, No Iterations 3
DILUPBiCGStab:  Solving for H2O, Initial residual = 0.00303616, Final residual = 2.02454e-09, No Iterations 3
DILUPBiCGStab:  Solving for CH4, Initial residual = 0, Final residual = 0, No Iterations 0
DILUPBiCGStab:  Solving for CO2, Initial residual = 0.00303616, Final residual = 2.02454e-09, No Iterations 3
DILUPBiCGStab:  Solving for h, Initial residual = 0.00363816, Final residual = 1.98176e-09, No Iterations 3
min/max(T) = 299.416, 1044.98
GAMGPCG:  Solving for p_rgh, Initial residual = 0.0202482, Final residual = 8.84193e-07, No Iterations 4
diagonal:  Solving for rho, Initial residual = 0, Final residual = 0, No Iterations 0
time step continuity errors : sum local = 4.83825e-08, global = -3.19674e-09, cumulative = -2.97717e-07
GAMGPCG:  Solving for p_rgh, Initial residual = 0.00272446, Final residual = 3.35973e-07, No Iterations 4
diagonal:  Solving for rho, Initial residual = 0, Final residual = 0, No Iterations 0
time step continuity errors : sum local = 1.78483e-08, global = 1.20825e-09, cumulative = -2.96509e-07
DILUPBiCGStab:  Solving for omega, Initial residual = 0.00012147, Final residual = 1.65775e-09, No Iterations 2
DILUPBiCGStab:  Solving for k, Initial residual = 0.00709404, Final residual = 2.54558e-09, No Iterations 3

ExecutionTime = 5.53 s  ClockTime = 6 s

    Overall     = 0.00144084, 0.01
Time = 292

diagonal:  Solving for rho, Initial residual = 0, Final residual = 0, No Iterations 0

Execution time for mesh.update() = 0 s

DILUPBiCGStab:  Solving for Ux, Initial residual = 0.00572157, Final residual = 3.47982e-09, No Iterations 3
DILUPBiCGStab:  Solving for Uy, Initial residual = 0.00747572, Final residual = 6.36247e-09, No Iterations 3
DILUPBiCGStab:  Solving for O2, Initial residual = 0.00303558, Final residual = 2.12026e-09, No Iterations 3
DILUPBiCGStab:  Solving for H2O, Initial residual = 0.00303608, Final residual = 2.1203e-09, No Iterations 3
DILUPBiCGStab:  Solving for CH4, Initial residual = 0, Final residual = 0, No Iterations 0
DILUPBiCGStab:  Solving for CO2, Initial residual = 0.00303608, Final residual = 2.1203e-09, No Iterations 3
DILUPBiCGStab:  Solving for h, Initial residual = 0.00363755, Final residual = 2.12394e-09, No Iterations 3
min/max(T) = 299.403, 1044.98
GAMGPCG:  Solving for p_rgh, Initial residual = 0.0202088, Final residual = 8.68509e-07, No Iterations 4
diagonal:  Solving for rho, Initial residual = 0, Final residual = 0, No Iterations 0
time step continuity errors : sum local = 4.71765e-08, global = -4.00832e-09, cumulative = -3.00517e-07
GAMGPCG:  Solving for p_rgh, Initial residual = 0.00272233, Final residual = 3.40288e-07, No Iterations 4
diagonal:  Solving for rho, Initial residual = 0, Final residual = 0, No Iterations 0
time step continuity errors : sum local = 1.79643e-08, global = 1.01355e-09, cumulative = -2.99504e-07
DILUPBiCGStab:  Solving for omega, Initial residual = 0.000121473, Final residual = 1.64972e-09, No Iterations 2
DILUPBiCGStab:  Solving for k, Initial residual = 0.00707855, Final residual = 2.48592e-09, No Iterations 3

ExecutionTime = 5.64 s  ClockTime = 6 s

    Overall     = 0.00143351, 0.01
Time = 293

[...]

Execution time for mesh.update() = 0 s

DILUPBiCGStab:  Solving for Ux, Initial residual = 0.0049383, Final residual = 6.48042e-09, No Iterations 3
DILUPBiCGStab:  Solving for Uy, Initial residual = 0.00504053, Final residual = 6.68566e-09, No Iterations 3
GAMGPCG:  Solving for G, Initial residual = 0.230118, Final residual = 8.29093e-05, No Iterations 5
DILUPBiCGStab:  Solving for O2, Initial residual = 0.00188072, Final residual = 2.97355e-09, No Iterations 3
DILUPBiCGStab:  Solving for H2O, Initial residual = 0.00188075, Final residual = 2.97351e-09, No Iterations 3
DILUPBiCGStab:  Solving for CH4, Initial residual = 0, Final residual = 0, No Iterations 0
DILUPBiCGStab:  Solving for CO2, Initial residual = 0.00188075, Final residual = 2.97351e-09, No Iterations 3
DILUPBiCGStab:  Solving for h, Initial residual = 0.00215656, Final residual = 3.20885e-09, No Iterations 3
min/max(T) = 299.947, 1044.98
GAMGPCG:  Solving for p_rgh, Initial residual = 0.0176898, Final residual = 1.58155e-07, No Iterations 5
diagonal:  Solving for rho, Initial residual = 0, Final residual = 0, No Iterations 0
time step continuity errors : sum local = 6.3367e-09, global = -1.24727e-09, cumulative = 1.08021e-06
GAMGPCG:  Solving for p_rgh, Initial residual = 0.00293446, Final residual = 5.15339e-07, No Iterations 4
diagonal:  Solving for rho, Initial residual = 0, Final residual = 0, No Iterations 0
time step continuity errors : sum local = 2.00732e-08, global = 1.54476e-09, cumulative = 1.08175e-06
DILUPBiCGStab:  Solving for omega, Initial residual = 8.62218e-05, Final residual = 1.59521e-09, No Iterations 2
DILUPBiCGStab:  Solving for k, Initial residual = 0.00414922, Final residual = 3.221e-09, No Iterations 3

ExecutionTime = 291.42 s  ClockTime = 292 s

    Overall     = 0.0012146, 0.01
Time = 2491

diagonal:  Solving for rho, Initial residual = 0, Final residual = 0, No Iterations 0

Execution time for mesh.update() = 0 s

DILUPBiCGStab:  Solving for Ux, Initial residual = 0.00491095, Final residual = 7.02823e-09, No Iterations 3
DILUPBiCGStab:  Solving for Uy, Initial residual = 0.0050259, Final residual = 7.2667e-09, No Iterations 3
DILUPBiCGStab:  Solving for O2, Initial residual = 0.00188516, Final residual = 2.83387e-09, No Iterations 3
DILUPBiCGStab:  Solving for H2O, Initial residual = 0.00188521, Final residual = 2.83382e-09, No Iterations 3
DILUPBiCGStab:  Solving for CH4, Initial residual = 0, Final residual = 0, No Iterations 0
DILUPBiCGStab:  Solving for CO2, Initial residual = 0.00188521, Final residual = 2.83382e-09, No Iterations 3
DILUPBiCGStab:  Solving for h, Initial residual = 0.0021615, Final residual = 3.08424e-09, No Iterations 3
min/max(T) = 299.938, 1044.98
GAMGPCG:  Solving for p_rgh, Initial residual = 0.017731, Final residual = 1.55218e-07, No Iterations 5
diagonal:  Solving for rho, Initial residual = 0, Final residual = 0, No Iterations 0
time step continuity errors : sum local = 6.22991e-09, global = -1.26618e-09, cumulative = 1.08048e-06
GAMGPCG:  Solving for p_rgh, Initial residual = 0.00294558, Final residual = 5.04085e-07, No Iterations 4
diagonal:  Solving for rho, Initial residual = 0, Final residual = 0, No Iterations 0
time step continuity errors : sum local = 1.96283e-08, global = 1.65361e-09, cumulative = 1.08214e-06
DILUPBiCGStab:  Solving for omega, Initial residual = 8.58474e-05, Final residual = 1.65642e-09, No Iterations 2
DILUPBiCGStab:  Solving for k, Initial residual = 0.00415081, Final residual = 3.43176e-09, No Iterations 3

ExecutionTime = 291.54 s  ClockTime = 292 s

    Overall     = 0.0012206, 0.01
Time = 2492

diagonal:  Solving for rho, Initial residual = 0, Final residual = 0, No Iterations 0

Execution time for mesh.update() = 0 s

DILUPBiCGStab:  Solving for Ux, Initial residual = 0.00490045, Final residual = 7.96956e-09, No Iterations 3
DILUPBiCGStab:  Solving for Uy, Initial residual = 0.0050139, Final residual = 7.52445e-09, No Iterations 3
DILUPBiCGStab:  Solving for O2, Initial residual = 0.00188965, Final residual = 2.5663e-09, No Iterations 3
DILUPBiCGStab:  Solving for H2O, Initial residual = 0.0018897, Final residual = 2.56629e-09, No Iterations 3
DILUPBiCGStab:  Solving for CH4, Initial residual = 0, Final residual = 0, No Iterations 0
DILUPBiCGStab:  Solving for CO2, Initial residual = 0.0018897, Final residual = 2.56629e-09, No Iterations 3
DILUPBiCGStab:  Solving for h, Initial residual = 0.00216528, Final residual = 2.66897e-09, No Iterations 3
min/max(T) = 299.934, 1044.98
GAMGPCG:  Solving for p_rgh, Initial residual = 0.0176939, Final residual = 1.59276e-07, No Iterations 5
diagonal:  Solving for rho, Initial residual = 0, Final residual = 0, No Iterations 0
time step continuity errors : sum local = 6.37396e-09, global = -1.12453e-09, cumulative = 1.08101e-06
GAMGPCG:  Solving for p_rgh, Initial residual = 0.00296624, Final residual = 4.93744e-07, No Iterations 4
diagonal:  Solving for rho, Initial residual = 0, Final residual = 0, No Iterations 0
time step continuity errors : sum local = 1.92284e-08, global = 1.71842e-09, cumulative = 1.08273e-06
DILUPBiCGStab:  Solving for omega, Initial residual = 8.55114e-05, Final residual = 1.66198e-09, No Iterations 2
DILUPBiCGStab:  Solving for k, Initial residual = 0.00415388, Final residual = 5.98405e-09, No Iterations 3

ExecutionTime = 291.65 s  ClockTime = 292 s

    Overall     = 0.00122253, 0.01
Time = 2493

diagonal:  Solving for rho, Initial residual = 0, Final residual = 0, No Iterations 0

Execution time for mesh.update() = 0 s

DILUPBiCGStab:  Solving for Ux, Initial residual = 0.00490709, Final residual = 6.8205e-09, No Iterations 3
DILUPBiCGStab:  Solving for Uy, Initial residual = 0.00504248, Final residual = 9.13846e-09, No Iterations 3
DILUPBiCGStab:  Solving for O2, Initial residual = 0.00189791, Final residual = 2.41661e-09, No Iterations 3
DILUPBiCGStab:  Solving for H2O, Initial residual = 0.00189797, Final residual = 2.41661e-09, No Iterations 3
DILUPBiCGStab:  Solving for CH4, Initial residual = 0, Final residual = 0, No Iterations 0
DILUPBiCGStab:  Solving for CO2, Initial residual = 0.00189797, Final residual = 2.41661e-09, No Iterations 3
DILUPBiCGStab:  Solving for h, Initial residual = 0.00217275, Final residual = 2.52116e-09, No Iterations 3
min/max(T) = 299.93, 1044.98
GAMGPCG:  Solving for p_rgh, Initial residual = 0.0176744, Final residual = 1.63361e-07, No Iterations 5
diagonal:  Solving for rho, Initial residual = 0, Final residual = 0, No Iterations 0
time step continuity errors : sum local = 6.52545e-09, global = -1.19687e-09, cumulative = 1.08153e-06
GAMGPCG:  Solving for p_rgh, Initial residual = 0.00297486, Final residual = 4.80955e-07, No Iterations 4
diagonal:  Solving for rho, Initial residual = 0, Final residual = 0, No Iterations 0
time step continuity errors : sum local = 1.8733e-08, global = 1.72971e-09, cumulative = 1.08326e-06
DILUPBiCGStab:  Solving for omega, Initial residual = 8.52846e-05, Final residual = 1.59581e-09, No Iterations 2
DILUPBiCGStab:  Solving for k, Initial residual = 0.00415686, Final residual = 4.57189e-09, No Iterations 3

ExecutionTime = 291.77 s  ClockTime = 292 s

    Overall     = 0.00122979, 0.01
Time = 2494

diagonal:  Solving for rho, Initial residual = 0, Final residual = 0, No Iterations 0

Execution time for mesh.update() = 0 s

DILUPBiCGStab:  Solving for Ux, Initial residual = 0.00491505, Final residual = 7.64856e-09, No Iterations 3
DILUPBiCGStab:  Solving for Uy, Initial residual = 0.00508303, Final residual = 8.34565e-10, No Iterations 3
DILUPBiCGStab:  Solving for O2, Initial residual = 0.0019034, Final residual = 2.41164e-09, No Iterations 3
DILUPBiCGStab:  Solving for H2O, Initial residual = 0.00190343, Final residual = 2.41165e-09, No Iterations 3
DILUPBiCGStab:  Solving for CH4, Initial residual = 0, Final residual = 0, No Iterations 0
DILUPBiCGStab:  Solving for CO2, Initial residual = 0.00190343, Final residual = 2.41165e-09, No Iterations 3
DILUPBiCGStab:  Solving for h, Initial residual = 0.00217858, Final residual = 2.46466e-09, No Iterations 3
min/max(T) = 299.929, 1044.98
GAMGPCG:  Solving for p_rgh, Initial residual = 0.01799, Final residual = 1.53308e-07, No Iterations 5
diagonal:  Solving for rho, Initial residual = 0, Final residual = 0, No Iterations 0
time step continuity errors : sum local = 6.15423e-09, global = -1.16189e-09, cumulative = 1.0821e-06
GAMGPCG:  Solving for p_rgh, Initial residual = 0.0030308, Final residual = 4.69676e-07, No Iterations 4
diagonal:  Solving for rho, Initial residual = 0, Final residual = 0, No Iterations 0
time step continuity errors : sum local = 1.83503e-08, global = 1.74553e-09, cumulative = 1.08385e-06
DILUPBiCGStab:  Solving for omega, Initial residual = 8.53607e-05, Final residual = 1.60175e-09, No Iterations 2
DILUPBiCGStab:  Solving for k, Initial residual = 0.00415129, Final residual = 3.89579e-09, No Iterations 3

ExecutionTime = 291.89 s  ClockTime = 292 s

    Overall     = 0.00123231, 0.01
Time = 2495

diagonal:  Solving for rho, Initial residual = 0, Final residual = 0, No Iterations 0

Execution time for mesh.update() = 0 s

DILUPBiCGStab:  Solving for Ux, Initial residual = 0.00492516, Final residual = 6.88848e-09, No Iterations 3
DILUPBiCGStab:  Solving for Uy, Initial residual = 0.00510819, Final residual = 1.12955e-09, No Iterations 3
DILUPBiCGStab:  Solving for O2, Initial residual = 0.0019028, Final residual = 2.86511e-09, No Iterations 3
DILUPBiCGStab:  Solving for H2O, Initial residual = 0.00190283, Final residual = 2.86511e-09, No Iterations 3
DILUPBiCGStab:  Solving for CH4, Initial residual = 0, Final residual = 0, No Iterations 0
DILUPBiCGStab:  Solving for CO2, Initial residual = 0.00190283, Final residual = 2.86511e-09, No Iterations 3
DILUPBiCGStab:  Solving for h, Initial residual = 0.00217608, Final residual = 2.82657e-09, No Iterations 3
min/max(T) = 299.93, 1044.98
GAMGPCG:  Solving for p_rgh, Initial residual = 0.0179275, Final residual = 1.45553e-07, No Iterations 5
diagonal:  Solving for rho, Initial residual = 0, Final residual = 0, No Iterations 0
time step continuity errors : sum local = 5.86455e-09, global = -1.37925e-09, cumulative = 1.08247e-06
GAMGPCG:  Solving for p_rgh, Initial residual = 0.00305589, Final residual = 4.57259e-07, No Iterations 4
diagonal:  Solving for rho, Initial residual = 0, Final residual = 0, No Iterations 0
time step continuity errors : sum local = 1.78602e-08, global = 1.72354e-09, cumulative = 1.08419e-06
DILUPBiCGStab:  Solving for omega, Initial residual = 8.5261e-05, Final residual = 1.53791e-09, No Iterations 2
DILUPBiCGStab:  Solving for k, Initial residual = 0.00414618, Final residual = 2.73231e-09, No Iterations 3

ExecutionTime = 292.01 s  ClockTime = 292 s

    Overall     = 0.00124021, 0.01
Time = 2496

diagonal:  Solving for rho, Initial residual = 0, Final residual = 0, No Iterations 0

Execution time for mesh.update() = 0 s

DILUPBiCGStab:  Solving for Ux, Initial residual = 0.00492795, Final residual = 7.85902e-09, No Iterations 3
DILUPBiCGStab:  Solving for Uy, Initial residual = 0.00513189, Final residual = 8.72597e-10, No Iterations 3
DILUPBiCGStab:  Solving for O2, Initial residual = 0.00190839, Final residual = 3.28665e-09, No Iterations 3
DILUPBiCGStab:  Solving for H2O, Initial residual = 0.00190843, Final residual = 3.28667e-09, No Iterations 3
DILUPBiCGStab:  Solving for CH4, Initial residual = 0, Final residual = 0, No Iterations 0
DILUPBiCGStab:  Solving for CO2, Initial residual = 0.00190843, Final residual = 3.28667e-09, No Iterations 3
DILUPBiCGStab:  Solving for h, Initial residual = 0.00217988, Final residual = 3.2705e-09, No Iterations 3
min/max(T) = 299.931, 1044.98
GAMGPCG:  Solving for p_rgh, Initial residual = 0.0182303, Final residual = 1.39309e-07, No Iterations 5
diagonal:  Solving for rho, Initial residual = 0, Final residual = 0, No Iterations 0
time step continuity errors : sum local = 5.59226e-09, global = -1.42284e-09, cumulative = 1.08277e-06
GAMGPCG:  Solving for p_rgh, Initial residual = 0.00309874, Final residual = 4.51971e-07, No Iterations 4
diagonal:  Solving for rho, Initial residual = 0, Final residual = 0, No Iterations 0
time step continuity errors : sum local = 1.77294e-08, global = 1.73367e-09, cumulative = 1.0845e-06
DILUPBiCGStab:  Solving for omega, Initial residual = 8.52856e-05, Final residual = 1.64146e-09, No Iterations 2
DILUPBiCGStab:  Solving for k, Initial residual = 0.00414232, Final residual = 3.11451e-09, No Iterations 3

ExecutionTime = 292.12 s  ClockTime = 292 s

    Overall     = 0.0012425, 0.01
Time = 2497

diagonal:  Solving for rho, Initial residual = 0, Final residual = 0, No Iterations 0

Execution time for mesh.update() = 0 s

DILUPBiCGStab:  Solving for Ux, Initial residual = 0.0049318, Final residual = 9.43161e-09, No Iterations 3
DILUPBiCGStab:  Solving for Uy, Initial residual = 0.0051422, Final residual = 8.17341e-09, No Iterations 3
DILUPBiCGStab:  Solving for O2, Initial residual = 0.00190593, Final residual = 4.32189e-09, No Iterations 3
DILUPBiCGStab:  Solving for H2O, Initial residual = 0.00190596, Final residual = 4.32192e-09, No Iterations 3
DILUPBiCGStab:  Solving for CH4, Initial residual = 0, Final residual = 0, No Iterations 0
DILUPBiCGStab:  Solving for CO2, Initial residual = 0.00190596, Final residual = 4.32192e-09, No Iterations 3
DILUPBiCGStab:  Solving for h, Initial residual = 0.00217373, Final residual = 4.74017e-09, No Iterations 3
min/max(T) = 299.933, 1044.98
GAMGPCG:  Solving for p_rgh, Initial residual = 0.0181995, Final residual = 1.40357e-07, No Iterations 5
diagonal:  Solving for rho, Initial residual = 0, Final residual = 0, No Iterations 0
time step continuity errors : sum local = 5.65472e-09, global = -1.62264e-09, cumulative = 1.08288e-06
GAMGPCG:  Solving for p_rgh, Initial residual = 0.00311537, Final residual = 4.42143e-07, No Iterations 4
diagonal:  Solving for rho, Initial residual = 0, Final residual = 0, No Iterations 0
time step continuity errors : sum local = 1.74002e-08, global = 1.60909e-09, cumulative = 1.08449e-06
DILUPBiCGStab:  Solving for omega, Initial residual = 8.53737e-05, Final residual = 1.53168e-09, No Iterations 2
DILUPBiCGStab:  Solving for k, Initial residual = 0.00413258, Final residual = 8.26223e-09, No Iterations 3

ExecutionTime = 292.24 s  ClockTime = 293 s

    Overall     = 0.00125011, 0.01
Time = 2498

diagonal:  Solving for rho, Initial residual = 0, Final residual = 0, No Iterations 0

Execution time for mesh.update() = 0 s

DILUPBiCGStab:  Solving for Ux, Initial residual = 0.00493271, Final residual = 8.67667e-09, No Iterations 3
DILUPBiCGStab:  Solving for Uy, Initial residual = 0.00517509, Final residual = 8.67483e-09, No Iterations 3
DILUPBiCGStab:  Solving for O2, Initial residual = 0.00190707, Final residual = 4.80593e-09, No Iterations 3
DILUPBiCGStab:  Solving for H2O, Initial residual = 0.00190711, Final residual = 4.80597e-09, No Iterations 3
DILUPBiCGStab:  Solving for CH4, Initial residual = 0, Final residual = 0, No Iterations 0
DILUPBiCGStab:  Solving for CO2, Initial residual = 0.00190711, Final residual = 4.80597e-09, No Iterations 3
DILUPBiCGStab:  Solving for h, Initial residual = 0.00217287, Final residual = 4.77333e-09, No Iterations 3
min/max(T) = 299.935, 1044.98
GAMGPCG:  Solving for p_rgh, Initial residual = 0.0180247, Final residual = 1.25263e-07, No Iterations 5
diagonal:  Solving for rho, Initial residual = 0, Final residual = 0, No Iterations 0
time step continuity errors : sum local = 5.07644e-09, global = -1.29141e-09, cumulative = 1.0832e-06
GAMGPCG:  Solving for p_rgh, Initial residual = 0.00318951, Final residual = 4.26707e-07, No Iterations 4
diagonal:  Solving for rho, Initial residual = 0, Final residual = 0, No Iterations 0
time step continuity errors : sum local = 1.69202e-08, global = 1.33678e-09, cumulative = 1.08453e-06
DILUPBiCGStab:  Solving for omega, Initial residual = 8.53092e-05, Final residual = 1.5085e-09, No Iterations 2
DILUPBiCGStab:  Solving for k, Initial residual = 0.00412949, Final residual = 2.69343e-09, No Iterations 3

ExecutionTime = 292.35 s  ClockTime = 293 s

    Overall     = 0.0012521, 0.01
Time = 2499

diagonal:  Solving for rho, Initial residual = 0, Final residual = 0, No Iterations 0

Execution time for mesh.update() = 0 s

DILUPBiCGStab:  Solving for Ux, Initial residual = 0.00494164, Final residual = 8.79071e-09, No Iterations 3
DILUPBiCGStab:  Solving for Uy, Initial residual = 0.00517228, Final residual = 7.32855e-09, No Iterations 3
DILUPBiCGStab:  Solving for O2, Initial residual = 0.00189944, Final residual = 4.08627e-09, No Iterations 3
DILUPBiCGStab:  Solving for H2O, Initial residual = 0.00189947, Final residual = 4.08629e-09, No Iterations 3
DILUPBiCGStab:  Solving for CH4, Initial residual = 0, Final residual = 0, No Iterations 0
DILUPBiCGStab:  Solving for CO2, Initial residual = 0.00189947, Final residual = 4.08629e-09, No Iterations 3
DILUPBiCGStab:  Solving for h, Initial residual = 0.00215949, Final residual = 3.89187e-09, No Iterations 3
min/max(T) = 299.937, 1044.98
GAMGPCG:  Solving for p_rgh, Initial residual = 0.0180501, Final residual = 1.32604e-07, No Iterations 5
diagonal:  Solving for rho, Initial residual = 0, Final residual = 0, No Iterations 0
time step continuity errors : sum local = 5.39631e-09, global = -1.56533e-09, cumulative = 1.08297e-06
GAMGPCG:  Solving for p_rgh, Initial residual = 0.00319937, Final residual = 4.15847e-07, No Iterations 4
diagonal:  Solving for rho, Initial residual = 0, Final residual = 0, No Iterations 0
time step continuity errors : sum local = 1.65415e-08, global = 1.05515e-09, cumulative = 1.08402e-06
DILUPBiCGStab:  Solving for omega, Initial residual = 8.51332e-05, Final residual = 1.45158e-09, No Iterations 2
DILUPBiCGStab:  Solving for k, Initial residual = 0.00412323, Final residual = 3.62575e-09, No Iterations 3

ExecutionTime = 292.48 s  ClockTime = 293 s

    Overall     = 0.00125864, 0.01
Time = 2500

diagonal:  Solving for rho, Initial residual = 0, Final residual = 0, No Iterations 0

Execution time for mesh.update() = 0 s

DILUPBiCGStab:  Solving for Ux, Initial residual = 0.00493069, Final residual = 8.5797e-09, No Iterations 3
DILUPBiCGStab:  Solving for Uy, Initial residual = 0.00519479, Final residual = 6.45496e-09, No Iterations 3
GAMGPCG:  Solving for G, Initial residual = 0.166526, Final residual = 6.09075e-05, No Iterations 5
DILUPBiCGStab:  Solving for O2, Initial residual = 0.00189547, Final residual = 3.2449e-09, No Iterations 3
DILUPBiCGStab:  Solving for H2O, Initial residual = 0.0018955, Final residual = 3.2449e-09, No Iterations 3
DILUPBiCGStab:  Solving for CH4, Initial residual = 0, Final residual = 0, No Iterations 0
DILUPBiCGStab:  Solving for CO2, Initial residual = 0.0018955, Final residual = 3.2449e-09, No Iterations 3
DILUPBiCGStab:  Solving for h, Initial residual = 0.00215535, Final residual = 3.21774e-09, No Iterations 3
min/max(T) = 299.94, 1044.98
GAMGPCG:  Solving for p_rgh, Initial residual = 0.0182677, Final residual = 1.22664e-07, No Iterations 5
diagonal:  Solving for rho, Initial residual = 0, Final residual = 0, No Iterations 0
time step continuity errors : sum local = 5.02912e-09, global = -1.16592e-09, cumulative = 1.08286e-06
GAMGPCG:  Solving for p_rgh, Initial residual = 0.00322182, Final residual = 4.01281e-07, No Iterations 4
diagonal:  Solving for rho, Initial residual = 0, Final residual = 0, No Iterations 0
time step continuity errors : sum local = 1.59651e-08, global = 9.49003e-10, cumulative = 1.08381e-06
DILUPBiCGStab:  Solving for omega, Initial residual = 8.51536e-05, Final residual = 1.39124e-09, No Iterations 2
DILUPBiCGStab:  Solving for k, Initial residual = 0.00412711, Final residual = 9.46726e-09, No Iterations 3

ExecutionTime = 292.73 s  ClockTime = 293 s


Patch Mean : 303.095
Patch Variance : 0.012194
Patch Gradient : 0.216967
End
