/*---------------------------------------------------------------------------*\
  =========                 |
  \\      /  F ield         | OpenFOAM: The Open Source CFD Toolbox
   \\    /   O peration     | Website:  https://openfoam.org
    \\  /    A nd           | Version:  dev
     \\/     M anipulation  |
\*---------------------------------------------------------------------------*/
Build  : dev-cabe48fb62c1
Exec   : fireDyMFoam
Date   : Apr 15 2019
Time   : 11:41:43
Host   : "Host"
PID    : 29645
I/O    : uncollated
Case   : /home/tesla/OpenFOAM/tesla-dev/run/rollerOpt_COBYLA_NEW
nProcs : 1
sigFpe : Enabling floating point exception trapping (FOAM_SIGFPE).
fileModificationChecking : Monitoring run-time modified files using timeStampMaster (fileModificationSkew 10)
allowSystemOperations : Allowing user-supplied system call operations

// * * * * * * * * * * * * * * * * * * * * * * * * * * * * * * * * * * * * * //
Create time

--> FOAM Warning : 
    From function void* Foam::dlOpen(const Foam::fileName&, bool)
    in file POSIX.C at line 1268
    dlopen error : libgroovyBC.so: cannot open shared object file: No such file or directory
--> FOAM Warning : 
    From function bool Foam::dlLibraryTable::open(const Foam::fileName&, bool)
    in file db/dynamicLibrary/dlLibraryTable/dlLibraryTable.C at line 105
    could not load "libgroovyBC.so"
Create mesh for time = 250

Selecting dynamicFvMesh dynamicRefineFvMesh
Detected 512 cells that are protected from refinement. Writing these to cellSet protectedCells.

PIMPLE: No convergence criteria found


PIMPLE: Operating solver in PISO mode


Initializing Solver

Selecting thermodynamics package 
{
    type            hePsiThermo;
    mixture         reactingMixture;
    transport       sutherland;
    thermo          janaf;
    energy          sensibleEnthalpy;
    equationOfState perfectGas;
    specie          specie;
}

Selecting chemistryReader foamChemistryReader
    elements not defined in "/home/tesla/OpenFOAM/tesla-dev/run/rollerOpt_COBYLA_NEW/constant/reactions"
Reading/calculating face flux field phi

No MRF models present

Selecting turbulence model type RAS
Selecting RAS turbulence model kOmegaSST
Selecting patchDistMethod meshWave
kOmegaSSTCoeffs
{
    delta           cubeRootVol;
    cubeRootVolCoeffs
    {
        deltaCoeff      1;
    }
    alphaK1         0.85;
    alphaK2         1;
    alphaOmega1     0.5;
    alphaOmega2     0.856;
    gamma1          0.555556;
    gamma2          0.44;
    beta1           0.075;
    beta2           0.0828;
    betaStar        0.09;
    a1              0.31;
    b1              1;
    c1              10;
    F3              false;
}

Selecting combustion model none<psiThermoCombustion>
--> FOAM Warning : 
    From function static Foam::autoPtr<T> Foam::combustionModel::New(typename CombustionModel::reactionThermo&, const Foam::compressibleTurbulenceModel&, const Foam::word&) [with CombustionModel = Foam::CombustionModel<Foam::psiReactionThermo>; typename CombustionModel::reactionThermo = Foam::psiReactionThermo]
    in file /home/tesla/OpenFOAM/OpenFOAM-dev/src/combustionModels/lnInclude/combustionModelTemplates.C at line 69
    Template parameters are no longer required when selecting a combustionModel. This information is now obtained directly from the thermodynamics. Actually selecting combustion model none.

Reading g

Reading hRef
Calculating field g.h


Reading pRef
Selecting radiationModel P1
Selecting absorptionEmissionModel greyMeanAbsorptionEmission
Selecting scatterModel none
Selecting sootModel none
Creating finite volume options from "system/fvOptions"

No finite volume options present
Using LTS

Starting time loop

Using dynamicCode for functionObject patchCalcs at line 64 in "/home/tesla/OpenFOAM/tesla-dev/run/rollerOpt_COBYLA_NEW/system/controlDict.functions.patchCalcs"
    Overall     = 0.00133115, 0.01
Time = 251

diagonal:  Solving for rho, Initial residual = 0, Final residual = 0, No Iterations 0

Execution time for mesh.update() = 0 s

DILUPBiCGStab:  Solving for Ux, Initial residual = 0.00931907, Final residual = 1.18177e-09, No Iterations 3
DILUPBiCGStab:  Solving for Uy, Initial residual = 0.010354, Final residual = 1.28672e-09, No Iterations 3
GAMGPCG:  Solving for G, Initial residual = 0.0422744, Final residual = 6.59749e-05, No Iterations 4
DILUPBiCGStab:  Solving for O2, Initial residual = 0.000746377, Final residual = 1.29268e-09, No Iterations 3
DILUPBiCGStab:  Solving for H2O, Initial residual = 0.000746616, Final residual = 1.29242e-09, No Iterations 3
DILUPBiCGStab:  Solving for CH4, Initial residual = 0, Final residual = 0, No Iterations 0
DILUPBiCGStab:  Solving for CO2, Initial residual = 0.000746617, Final residual = 1.29257e-09, No Iterations 3
DILUPBiCGStab:  Solving for h, Initial residual = 0.00100192, Final residual = 1.34347e-09, No Iterations 3
min/max(T) = 298.56, 1044.97
GAMGPCG:  Solving for p_rgh, Initial residual = 0.0164947, Final residual = 3.99818e-07, No Iterations 4
diagonal:  Solving for rho, Initial residual = 0, Final residual = 0, No Iterations 0
time step continuity errors : sum local = 2.46533e-06, global = -1.51586e-07, cumulative = -1.51586e-07
GAMGPCG:  Solving for p_rgh, Initial residual = 0.00337897, Final residual = 9.31717e-07, No Iterations 3
diagonal:  Solving for rho, Initial residual = 0, Final residual = 0, No Iterations 0
time step continuity errors : sum local = 2.47385e-06, global = -1.33314e-07, cumulative = -2.849e-07
DILUPBiCGStab:  Solving for omega, Initial residual = 7.8432e-05, Final residual = 9.8663e-09, No Iterations 2
DILUPBiCGStab:  Solving for k, Initial residual = 0.00178838, Final residual = 5.56743e-09, No Iterations 3

ExecutionTime = 0.37 s  ClockTime = 0 s

    Overall     = 0.00133878, 0.01
Time = 252

diagonal:  Solving for rho, Initial residual = 0, Final residual = 0, No Iterations 0

Execution time for mesh.update() = 0 s

DILUPBiCGStab:  Solving for Ux, Initial residual = 0.00932688, Final residual = 1.40508e-09, No Iterations 3
DILUPBiCGStab:  Solving for Uy, Initial residual = 0.0102396, Final residual = 5.54919e-09, No Iterations 3
DILUPBiCGStab:  Solving for O2, Initial residual = 0.000755443, Final residual = 1.08582e-09, No Iterations 3
DILUPBiCGStab:  Solving for H2O, Initial residual = 0.000755248, Final residual = 1.08586e-09, No Iterations 3
DILUPBiCGStab:  Solving for CH4, Initial residual = 0, Final residual = 0, No Iterations 0
DILUPBiCGStab:  Solving for CO2, Initial residual = 0.000755248, Final residual = 1.08585e-09, No Iterations 3
DILUPBiCGStab:  Solving for h, Initial residual = 0.0010361, Final residual = 1.20261e-09, No Iterations 3
min/max(T) = 298.816, 1044.97
GAMGPCG:  Solving for p_rgh, Initial residual = 0.0168125, Final residual = 2.82984e-07, No Iterations 4
diagonal:  Solving for rho, Initial residual = 0, Final residual = 0, No Iterations 0
time step continuity errors : sum local = 1.88958e-08, global = -5.11099e-09, cumulative = -2.90011e-07
GAMGPCG:  Solving for p_rgh, Initial residual = 0.00281453, Final residual = 5.11629e-07, No Iterations 3
diagonal:  Solving for rho, Initial residual = 0, Final residual = 0, No Iterations 0
time step continuity errors : sum local = 3.05226e-08, global = 1.04467e-08, cumulative = -2.79565e-07
DILUPBiCGStab:  Solving for omega, Initial residual = 7.73839e-05, Final residual = 9.64259e-09, No Iterations 2
DILUPBiCGStab:  Solving for k, Initial residual = 0.00178421, Final residual = 1.03403e-09, No Iterations 3

ExecutionTime = 0.48 s  ClockTime = 0 s

    Overall     = 0.0013398, 0.01
Time = 253

diagonal:  Solving for rho, Initial residual = 0, Final residual = 0, No Iterations 0

Execution time for mesh.update() = 0 s

DILUPBiCGStab:  Solving for Ux, Initial residual = 0.00938604, Final residual = 1.39406e-09, No Iterations 3
DILUPBiCGStab:  Solving for Uy, Initial residual = 0.0107201, Final residual = 1.30489e-09, No Iterations 3
DILUPBiCGStab:  Solving for O2, Initial residual = 0.000750872, Final residual = 1.32825e-09, No Iterations 3
DILUPBiCGStab:  Solving for H2O, Initial residual = 0.000751186, Final residual = 1.32784e-09, No Iterations 3
DILUPBiCGStab:  Solving for CH4, Initial residual = 0, Final residual = 0, No Iterations 0
DILUPBiCGStab:  Solving for CO2, Initial residual = 0.000751188, Final residual = 1.32784e-09, No Iterations 3
DILUPBiCGStab:  Solving for h, Initial residual = 0.00102112, Final residual = 1.17572e-09, No Iterations 3
min/max(T) = 298.575, 1044.97
GAMGPCG:  Solving for p_rgh, Initial residual = 0.0170978, Final residual = 3.02414e-07, No Iterations 4
diagonal:  Solving for rho, Initial residual = 0, Final residual = 0, No Iterations 0
time step continuity errors : sum local = 1.90442e-08, global = -2.99766e-09, cumulative = -2.82562e-07
GAMGPCG:  Solving for p_rgh, Initial residual = 0.00328916, Final residual = 7.77366e-07, No Iterations 3
diagonal:  Solving for rho, Initial residual = 0, Final residual = 0, No Iterations 0
time step continuity errors : sum local = 4.43831e-08, global = 1.29596e-08, cumulative = -2.69603e-07
DILUPBiCGStab:  Solving for omega, Initial residual = 7.42861e-05, Final residual = 8.11092e-10, No Iterations 2
DILUPBiCGStab:  Solving for k, Initial residual = 0.00178996, Final residual = 6.37803e-09, No Iterations 3

ExecutionTime = 0.58 s  ClockTime = 0 s

    Overall     = 0.00134332, 0.01
Time = 254

diagonal:  Solving for rho, Initial residual = 0, Final residual = 0, No Iterations 0

Execution time for mesh.update() = 0 s

DILUPBiCGStab:  Solving for Ux, Initial residual = 0.00927909, Final residual = 1.27627e-09, No Iterations 3
DILUPBiCGStab:  Solving for Uy, Initial residual = 0.0101713, Final residual = 1.28329e-09, No Iterations 3
DILUPBiCGStab:  Solving for O2, Initial residual = 0.000755295, Final residual = 1.52082e-09, No Iterations 3
DILUPBiCGStab:  Solving for H2O, Initial residual = 0.000754881, Final residual = 1.52076e-09, No Iterations 3
DILUPBiCGStab:  Solving for CH4, Initial residual = 0, Final residual = 0, No Iterations 0
DILUPBiCGStab:  Solving for CO2, Initial residual = 0.000754882, Final residual = 1.52075e-09, No Iterations 3
DILUPBiCGStab:  Solving for h, Initial residual = 0.00101292, Final residual = 1.90995e-09, No Iterations 3
min/max(T) = 298.977, 1044.97
GAMGPCG:  Solving for p_rgh, Initial residual = 0.0172377, Final residual = 3.22158e-07, No Iterations 4
diagonal:  Solving for rho, Initial residual = 0, Final residual = 0, No Iterations 0
time step continuity errors : sum local = 2.16984e-08, global = 4.47993e-09, cumulative = -2.65123e-07
GAMGPCG:  Solving for p_rgh, Initial residual = 0.00307674, Final residual = 6.4847e-07, No Iterations 3
diagonal:  Solving for rho, Initial residual = 0, Final residual = 0, No Iterations 0
time step continuity errors : sum local = 3.77532e-08, global = 1.29357e-08, cumulative = -2.52187e-07
DILUPBiCGStab:  Solving for omega, Initial residual = 7.17174e-05, Final residual = 9.25216e-09, No Iterations 2
DILUPBiCGStab:  Solving for k, Initial residual = 0.00177798, Final residual = 1.36557e-09, No Iterations 3

ExecutionTime = 0.69 s  ClockTime = 0 s

    Overall     = 0.00134807, 0.01
Time = 255

diagonal:  Solving for rho, Initial residual = 0, Final residual = 0, No Iterations 0

Execution time for mesh.update() = 0 s

DILUPBiCGStab:  Solving for Ux, Initial residual = 0.00922085, Final residual = 1.23877e-09, No Iterations 3
DILUPBiCGStab:  Solving for Uy, Initial residual = 0.0105002, Final residual = 1.93861e-09, No Iterations 3
DILUPBiCGStab:  Solving for O2, Initial residual = 0.000759277, Final residual = 1.48937e-09, No Iterations 3
DILUPBiCGStab:  Solving for H2O, Initial residual = 0.000759517, Final residual = 1.4896e-09, No Iterations 3
DILUPBiCGStab:  Solving for CH4, Initial residual = 0, Final residual = 0, No Iterations 0
DILUPBiCGStab:  Solving for CO2, Initial residual = 0.000759517, Final residual = 1.4896e-09, No Iterations 3
DILUPBiCGStab:  Solving for h, Initial residual = 0.00103056, Final residual = 2.02625e-09, No Iterations 3
min/max(T) = 298.596, 1044.97
GAMGPCG:  Solving for p_rgh, Initial residual = 0.0192875, Final residual = 3.01003e-07, No Iterations 4
diagonal:  Solving for rho, Initial residual = 0, Final residual = 0, No Iterations 0
time step continuity errors : sum local = 1.9286e-08, global = -1.9951e-09, cumulative = -2.54182e-07
GAMGPCG:  Solving for p_rgh, Initial residual = 0.00343557, Final residual = 9.00351e-07, No Iterations 3
diagonal:  Solving for rho, Initial residual = 0, Final residual = 0, No Iterations 0
time step continuity errors : sum local = 4.887e-08, global = 3.74912e-09, cumulative = -2.50433e-07
DILUPBiCGStab:  Solving for omega, Initial residual = 7.67643e-05, Final residual = 1.71768e-09, No Iterations 2
DILUPBiCGStab:  Solving for k, Initial residual = 0.00176952, Final residual = 6.03007e-09, No Iterations 3

ExecutionTime = 0.8 s  ClockTime = 0 s

    Overall     = 0.00134885, 0.01
Time = 256

diagonal:  Solving for rho, Initial residual = 0, Final residual = 0, No Iterations 0

Execution time for mesh.update() = 0.01 s

DILUPBiCGStab:  Solving for Ux, Initial residual = 0.00936554, Final residual = 1.30687e-09, No Iterations 3
DILUPBiCGStab:  Solving for Uy, Initial residual = 0.0105946, Final residual = 1.5273e-09, No Iterations 3
DILUPBiCGStab:  Solving for O2, Initial residual = 0.000757936, Final residual = 1.57329e-09, No Iterations 3
DILUPBiCGStab:  Solving for H2O, Initial residual = 0.000756971, Final residual = 1.57333e-09, No Iterations 3
DILUPBiCGStab:  Solving for CH4, Initial residual = 0, Final residual = 0, No Iterations 0
DILUPBiCGStab:  Solving for CO2, Initial residual = 0.000756972, Final residual = 1.57333e-09, No Iterations 3
DILUPBiCGStab:  Solving for h, Initial residual = 0.0010223, Final residual = 1.7613e-09, No Iterations 3
min/max(T) = 299.751, 1044.97
GAMGPCG:  Solving for p_rgh, Initial residual = 0.0183301, Final residual = 4.26528e-07, No Iterations 4
diagonal:  Solving for rho, Initial residual = 0, Final residual = 0, No Iterations 0
time step continuity errors : sum local = 2.78844e-08, global = 3.44257e-09, cumulative = -2.46991e-07
GAMGPCG:  Solving for p_rgh, Initial residual = 0.00351116, Final residual = 5.41162e-07, No Iterations 3
diagonal:  Solving for rho, Initial residual = 0, Final residual = 0, No Iterations 0
time step continuity errors : sum local = 3.13441e-08, global = 1.27068e-09, cumulative = -2.4572e-07
DILUPBiCGStab:  Solving for omega, Initial residual = 7.53795e-05, Final residual = 1.18809e-09, No Iterations 2
DILUPBiCGStab:  Solving for k, Initial residual = 0.00175963, Final residual = 2.63303e-09, No Iterations 3

ExecutionTime = 0.91 s  ClockTime = 1 s

    Overall     = 0.00135787, 0.01
Time = 257

diagonal:  Solving for rho, Initial residual = 0, Final residual = 0, No Iterations 0

Execution time for mesh.update() = 0 s

DILUPBiCGStab:  Solving for Ux, Initial residual = 0.00923598, Final residual = 1.40874e-09, No Iterations 3
DILUPBiCGStab:  Solving for Uy, Initial residual = 0.0102946, Final residual = 2.09901e-09, No Iterations 3
DILUPBiCGStab:  Solving for O2, Initial residual = 0.0007698, Final residual = 1.65057e-09, No Iterations 3
DILUPBiCGStab:  Solving for H2O, Initial residual = 0.00077005, Final residual = 1.65075e-09, No Iterations 3
DILUPBiCGStab:  Solving for CH4, Initial residual = 0, Final residual = 0, No Iterations 0
DILUPBiCGStab:  Solving for CO2, Initial residual = 0.000770051, Final residual = 1.65076e-09, No Iterations 3
DILUPBiCGStab:  Solving for h, Initial residual = 0.00104286, Final residual = 1.69586e-09, No Iterations 3
min/max(T) = 298.656, 1044.97
GAMGPCG:  Solving for p_rgh, Initial residual = 0.0167597, Final residual = 3.23355e-07, No Iterations 4
diagonal:  Solving for rho, Initial residual = 0, Final residual = 0, No Iterations 0
time step continuity errors : sum local = 2.10831e-08, global = -4.36755e-09, cumulative = -2.50087e-07
GAMGPCG:  Solving for p_rgh, Initial residual = 0.00331006, Final residual = 5.49371e-07, No Iterations 3
diagonal:  Solving for rho, Initial residual = 0, Final residual = 0, No Iterations 0
time step continuity errors : sum local = 3.02069e-08, global = 5.61059e-09, cumulative = -2.44477e-07
DILUPBiCGStab:  Solving for omega, Initial residual = 7.7264e-05, Final residual = 8.91035e-09, No Iterations 2
bounding omega, min: -9.30788 max: 62771.9 average: 382.509
DILUPBiCGStab:  Solving for k, Initial residual = 0.00173473, Final residual = 1.46941e-09, No Iterations 3

ExecutionTime = 1.02 s  ClockTime = 1 s

    Overall     = 0.00135064, 0.01
Time = 258

diagonal:  Solving for rho, Initial residual = 0, Final residual = 0, No Iterations 0

Execution time for mesh.update() = 0 s

DILUPBiCGStab:  Solving for Ux, Initial residual = 0.00897306, Final residual = 1.36079e-09, No Iterations 3
DILUPBiCGStab:  Solving for Uy, Initial residual = 0.0102735, Final residual = 1.99915e-09, No Iterations 3
DILUPBiCGStab:  Solving for O2, Initial residual = 0.000763343, Final residual = 1.62273e-09, No Iterations 3
DILUPBiCGStab:  Solving for H2O, Initial residual = 0.000763662, Final residual = 1.62288e-09, No Iterations 3
DILUPBiCGStab:  Solving for CH4, Initial residual = 0, Final residual = 0, No Iterations 0
DILUPBiCGStab:  Solving for CO2, Initial residual = 0.000763662, Final residual = 1.62288e-09, No Iterations 3
DILUPBiCGStab:  Solving for h, Initial residual = 0.00103706, Final residual = 1.75678e-09, No Iterations 3
min/max(T) = 298.566, 1044.97
GAMGPCG:  Solving for p_rgh, Initial residual = 0.0154828, Final residual = 3.21724e-07, No Iterations 4
diagonal:  Solving for rho, Initial residual = 0, Final residual = 0, No Iterations 0
time step continuity errors : sum local = 2.03139e-08, global = -2.50449e-09, cumulative = -2.46981e-07
GAMGPCG:  Solving for p_rgh, Initial residual = 0.00329405, Final residual = 5.6136e-07, No Iterations 3
diagonal:  Solving for rho, Initial residual = 0, Final residual = 0, No Iterations 0
time step continuity errors : sum local = 3.4424e-08, global = 1.22128e-08, cumulative = -2.34769e-07
DILUPBiCGStab:  Solving for omega, Initial residual = 7.0312e-05, Final residual = 8.88571e-09, No Iterations 2
DILUPBiCGStab:  Solving for k, Initial residual = 0.00172105, Final residual = 9.73916e-10, No Iterations 3

ExecutionTime = 1.13 s  ClockTime = 1 s

    Overall     = 0.00135578, 0.01
Time = 259

diagonal:  Solving for rho, Initial residual = 0, Final residual = 0, No Iterations 0

Execution time for mesh.update() = 0 s

DILUPBiCGStab:  Solving for Ux, Initial residual = 0.0089523, Final residual = 1.82847e-09, No Iterations 3
DILUPBiCGStab:  Solving for Uy, Initial residual = 0.00996446, Final residual = 1.86419e-09, No Iterations 3
DILUPBiCGStab:  Solving for O2, Initial residual = 0.000769521, Final residual = 1.5257e-09, No Iterations 3
DILUPBiCGStab:  Solving for H2O, Initial residual = 0.000768351, Final residual = 1.52572e-09, No Iterations 3
DILUPBiCGStab:  Solving for CH4, Initial residual = 0, Final residual = 0, No Iterations 0
DILUPBiCGStab:  Solving for CO2, Initial residual = 0.000768351, Final residual = 1.52571e-09, No Iterations 3
DILUPBiCGStab:  Solving for h, Initial residual = 0.00103879, Final residual = 1.61169e-09, No Iterations 3
min/max(T) = 300, 1044.97
GAMGPCG:  Solving for p_rgh, Initial residual = 0.0162563, Final residual = 4.39272e-07, No Iterations 4
diagonal:  Solving for rho, Initial residual = 0, Final residual = 0, No Iterations 0
time step continuity errors : sum local = 2.97145e-08, global = -8.66529e-09, cumulative = -2.43434e-07
GAMGPCG:  Solving for p_rgh, Initial residual = 0.00302822, Final residual = 5.4336e-07, No Iterations 3
diagonal:  Solving for rho, Initial residual = 0, Final residual = 0, No Iterations 0
time step continuity errors : sum local = 3.36762e-08, global = 1.4919e-08, cumulative = -2.28515e-07
DILUPBiCGStab:  Solving for omega, Initial residual = 9.62019e-05, Final residual = 8.96381e-09, No Iterations 2
DILUPBiCGStab:  Solving for k, Initial residual = 0.00171148, Final residual = 1.17874e-09, No Iterations 3

ExecutionTime = 1.24 s  ClockTime = 1 s

    Overall     = 0.00137925, 0.01
Time = 260

diagonal:  Solving for rho, Initial residual = 0, Final residual = 0, No Iterations 0

Execution time for mesh.update() = 0 s

DILUPBiCGStab:  Solving for Ux, Initial residual = 0.00879193, Final residual = 1.68577e-09, No Iterations 3
DILUPBiCGStab:  Solving for Uy, Initial residual = 0.0100395, Final residual = 1.82412e-09, No Iterations 3
GAMGPCG:  Solving for G, Initial residual = 0.1433, Final residual = 6.14053e-05, No Iterations 4
DILUPBiCGStab:  Solving for O2, Initial residual = 0.000778117, Final residual = 1.68704e-09, No Iterations 3
DILUPBiCGStab:  Solving for H2O, Initial residual = 0.000778303, Final residual = 1.687e-09, No Iterations 3
DILUPBiCGStab:  Solving for CH4, Initial residual = 0, Final residual = 0, No Iterations 0
DILUPBiCGStab:  Solving for CO2, Initial residual = 0.000778303, Final residual = 1.68699e-09, No Iterations 3
DILUPBiCGStab:  Solving for h, Initial residual = 0.00106099, Final residual = 1.62593e-09, No Iterations 3
min/max(T) = 298.409, 1044.97
GAMGPCG:  Solving for p_rgh, Initial residual = 0.0151562, Final residual = 3.98231e-07, No Iterations 4
diagonal:  Solving for rho, Initial residual = 0, Final residual = 0, No Iterations 0
time step continuity errors : sum local = 2.64563e-08, global = -8.4649e-09, cumulative = -2.3698e-07
GAMGPCG:  Solving for p_rgh, Initial residual = 0.00310375, Final residual = 4.43287e-07, No Iterations 3
diagonal:  Solving for rho, Initial residual = 0, Final residual = 0, No Iterations 0
time step continuity errors : sum local = 2.85448e-08, global = 7.82864e-09, cumulative = -2.29151e-07
DILUPBiCGStab:  Solving for omega, Initial residual = 9.01147e-05, Final residual = 9.21023e-09, No Iterations 2
DILUPBiCGStab:  Solving for k, Initial residual = 0.00169762, Final residual = 8.45778e-10, No Iterations 3

ExecutionTime = 1.47 s  ClockTime = 1 s

    Overall     = 0.00133794, 0.01
Time = 261

diagonal:  Solving for rho, Initial residual = 0, Final residual = 0, No Iterations 0

Execution time for mesh.update() = 0 s

DILUPBiCGStab:  Solving for Ux, Initial residual = 0.00866715, Final residual = 1.46839e-09, No Iterations 3
DILUPBiCGStab:  Solving for Uy, Initial residual = 0.00994411, Final residual = 5.11859e-09, No Iterations 3
DILUPBiCGStab:  Solving for O2, Initial residual = 0.000763226, Final residual = 1.40677e-09, No Iterations 3
DILUPBiCGStab:  Solving for H2O, Initial residual = 0.000763208, Final residual = 1.40698e-09, No Iterations 3
DILUPBiCGStab:  Solving for CH4, Initial residual = 0, Final residual = 0, No Iterations 0
DILUPBiCGStab:  Solving for CO2, Initial residual = 0.000763209, Final residual = 1.40698e-09, No Iterations 3
DILUPBiCGStab:  Solving for h, Initial residual = 0.00102265, Final residual = 1.07151e-09, No Iterations 3
min/max(T) = 298.555, 1044.97
GAMGPCG:  Solving for p_rgh, Initial residual = 0.0163749, Final residual = 5.99631e-07, No Iterations 4
diagonal:  Solving for rho, Initial residual = 0, Final residual = 0, No Iterations 0
time step continuity errors : sum local = 3.98567e-08, global = -8.91221e-09, cumulative = -2.38063e-07
GAMGPCG:  Solving for p_rgh, Initial residual = 0.00323013, Final residual = 9.15169e-07, No Iterations 3
diagonal:  Solving for rho, Initial residual = 0, Final residual = 0, No Iterations 0
time step continuity errors : sum local = 5.11786e-08, global = 1.86578e-08, cumulative = -2.19406e-07
DILUPBiCGStab:  Solving for omega, Initial residual = 7.60421e-05, Final residual = 9.01796e-09, No Iterations 2
DILUPBiCGStab:  Solving for k, Initial residual = 0.00167061, Final residual = 1.54342e-09, No Iterations 3

ExecutionTime = 1.58 s  ClockTime = 1 s

    Overall     = 0.00135003, 0.01
Time = 262

diagonal:  Solving for rho, Initial residual = 0, Final residual = 0, No Iterations 0

Execution time for mesh.update() = 0 s

DILUPBiCGStab:  Solving for Ux, Initial residual = 0.00868198, Final residual = 1.58115e-09, No Iterations 3
DILUPBiCGStab:  Solving for Uy, Initial residual = 0.0101862, Final residual = 1.83291e-09, No Iterations 3
DILUPBiCGStab:  Solving for O2, Initial residual = 0.000761084, Final residual = 1.30366e-09, No Iterations 3
DILUPBiCGStab:  Solving for H2O, Initial residual = 0.000760239, Final residual = 1.3032e-09, No Iterations 3
DILUPBiCGStab:  Solving for CH4, Initial residual = 0, Final residual = 0, No Iterations 0
DILUPBiCGStab:  Solving for CO2, Initial residual = 0.000760239, Final residual = 1.3032e-09, No Iterations 3
DILUPBiCGStab:  Solving for h, Initial residual = 0.00101225, Final residual = 2.86071e-09, No Iterations 3
min/max(T) = 299.236, 1044.97
GAMGPCG:  Solving for p_rgh, Initial residual = 0.0168596, Final residual = 4.92336e-07, No Iterations 4
diagonal:  Solving for rho, Initial residual = 0, Final residual = 0, No Iterations 0
time step continuity errors : sum local = 3.21616e-08, global = -9.19104e-09, cumulative = -2.28597e-07
GAMGPCG:  Solving for p_rgh, Initial residual = 0.00322863, Final residual = 7.8367e-07, No Iterations 3
diagonal:  Solving for rho, Initial residual = 0, Final residual = 0, No Iterations 0
time step continuity errors : sum local = 4.41849e-08, global = 1.35786e-08, cumulative = -2.15018e-07
DILUPBiCGStab:  Solving for omega, Initial residual = 8.20461e-05, Final residual = 7.63169e-10, No Iterations 2
DILUPBiCGStab:  Solving for k, Initial residual = 0.00166359, Final residual = 1.58704e-09, No Iterations 3

ExecutionTime = 1.69 s  ClockTime = 1 s

    Overall     = 0.00134933, 0.01
Time = 263

diagonal:  Solving for rho, Initial residual = 0, Final residual = 0, No Iterations 0

Execution time for mesh.update() = 0 s

DILUPBiCGStab:  Solving for Ux, Initial residual = 0.00864598, Final residual = 1.25602e-09, No Iterations 3
DILUPBiCGStab:  Solving for Uy, Initial residual = 0.0101579, Final residual = 1.62742e-09, No Iterations 3
DILUPBiCGStab:  Solving for O2, Initial residual = 0.000790432, Final residual = 1.38716e-09, No Iterations 3
DILUPBiCGStab:  Solving for H2O, Initial residual = 0.000790753, Final residual = 1.38682e-09, No Iterations 3
DILUPBiCGStab:  Solving for CH4, Initial residual = 0, Final residual = 0, No Iterations 0
DILUPBiCGStab:  Solving for CO2, Initial residual = 0.000790753, Final residual = 1.38682e-09, No Iterations 3
DILUPBiCGStab:  Solving for h, Initial residual = 0.00108216, Final residual = 1.93651e-09, No Iterations 3
min/max(T) = 298.633, 1044.97
GAMGPCG:  Solving for p_rgh, Initial residual = 0.0192602, Final residual = 4.88169e-07, No Iterations 4
diagonal:  Solving for rho, Initial residual = 0, Final residual = 0, No Iterations 0
time step continuity errors : sum local = 3.1908e-08, global = -6.79627e-09, cumulative = -2.21814e-07
GAMGPCG:  Solving for p_rgh, Initial residual = 0.00338563, Final residual = 5.53804e-07, No Iterations 3
diagonal:  Solving for rho, Initial residual = 0, Final residual = 0, No Iterations 0
time step continuity errors : sum local = 3.30429e-08, global = 7.96765e-09, cumulative = -2.13847e-07
DILUPBiCGStab:  Solving for omega, Initial residual = 7.81199e-05, Final residual = 8.66128e-10, No Iterations 2
DILUPBiCGStab:  Solving for k, Initial residual = 0.00163212, Final residual = 1.80762e-09, No Iterations 3

ExecutionTime = 1.8 s  ClockTime = 1 s

    Overall     = 0.00134525, 0.01
Time = 264

diagonal:  Solving for rho, Initial residual = 0, Final residual = 0, No Iterations 0

Execution time for mesh.update() = 0 s

DILUPBiCGStab:  Solving for Ux, Initial residual = 0.00913717, Final residual = 1.04947e-09, No Iterations 3
DILUPBiCGStab:  Solving for Uy, Initial residual = 0.0103229, Final residual = 1.605e-09, No Iterations 3
DILUPBiCGStab:  Solving for O2, Initial residual = 0.000764009, Final residual = 1.45374e-09, No Iterations 3
DILUPBiCGStab:  Solving for H2O, Initial residual = 0.000763772, Final residual = 1.45181e-09, No Iterations 3
DILUPBiCGStab:  Solving for CH4, Initial residual = 0, Final residual = 0, No Iterations 0
DILUPBiCGStab:  Solving for CO2, Initial residual = 0.000763772, Final residual = 1.4518e-09, No Iterations 3
DILUPBiCGStab:  Solving for h, Initial residual = 0.00102486, Final residual = 2.21066e-09, No Iterations 3
min/max(T) = 298.995, 1044.97
GAMGPCG:  Solving for p_rgh, Initial residual = 0.0168884, Final residual = 3.80865e-07, No Iterations 4
diagonal:  Solving for rho, Initial residual = 0, Final residual = 0, No Iterations 0
time step continuity errors : sum local = 2.54771e-08, global = -5.60685e-09, cumulative = -2.19454e-07
GAMGPCG:  Solving for p_rgh, Initial residual = 0.00340053, Final residual = 6.29776e-07, No Iterations 3
diagonal:  Solving for rho, Initial residual = 0, Final residual = 0, No Iterations 0
time step continuity errors : sum local = 3.61876e-08, global = 7.00266e-09, cumulative = -2.12451e-07
DILUPBiCGStab:  Solving for omega, Initial residual = 7.22144e-05, Final residual = 6.07232e-09, No Iterations 2
DILUPBiCGStab:  Solving for k, Initial residual = 0.00162496, Final residual = 6.08699e-09, No Iterations 3

ExecutionTime = 1.91 s  ClockTime = 2 s

    Overall     = 0.00134817, 0.01
Time = 265

diagonal:  Solving for rho, Initial residual = 0, Final residual = 0, No Iterations 0

Execution time for mesh.update() = 0 s

DILUPBiCGStab:  Solving for Ux, Initial residual = 0.00855324, Final residual = 9.57192e-09, No Iterations 3
DILUPBiCGStab:  Solving for Uy, Initial residual = 0.0100679, Final residual = 2.3776e-09, No Iterations 3
DILUPBiCGStab:  Solving for O2, Initial residual = 0.000788419, Final residual = 1.58333e-09, No Iterations 3
DILUPBiCGStab:  Solving for H2O, Initial residual = 0.000788953, Final residual = 1.58268e-09, No Iterations 3
DILUPBiCGStab:  Solving for CH4, Initial residual = 0, Final residual = 0, No Iterations 0
DILUPBiCGStab:  Solving for CO2, Initial residual = 0.000788954, Final residual = 1.58267e-09, No Iterations 3
DILUPBiCGStab:  Solving for h, Initial residual = 0.0010615, Final residual = 1.22743e-09, No Iterations 3
min/max(T) = 298.652, 1044.97
GAMGPCG:  Solving for p_rgh, Initial residual = 0.0190283, Final residual = 2.65158e-07, No Iterations 4
diagonal:  Solving for rho, Initial residual = 0, Final residual = 0, No Iterations 0
time step continuity errors : sum local = 1.62392e-08, global = 4.91203e-09, cumulative = -2.07539e-07
GAMGPCG:  Solving for p_rgh, Initial residual = 0.0034808, Final residual = 5.38588e-07, No Iterations 3
diagonal:  Solving for rho, Initial residual = 0, Final residual = 0, No Iterations 0
time step continuity errors : sum local = 2.99205e-08, global = 1.0306e-09, cumulative = -2.06508e-07
DILUPBiCGStab:  Solving for omega, Initial residual = 7.12202e-05, Final residual = 7.57861e-10, No Iterations 2
DILUPBiCGStab:  Solving for k, Initial residual = 0.00159627, Final residual = 1.91421e-09, No Iterations 3

ExecutionTime = 2.02 s  ClockTime = 2 s

    Overall     = 0.00134462, 0.01
Time = 266

diagonal:  Solving for rho, Initial residual = 0, Final residual = 0, No Iterations 0

Execution time for mesh.update() = 0 s

DILUPBiCGStab:  Solving for Ux, Initial residual = 0.00875172, Final residual = 8.67512e-10, No Iterations 3
DILUPBiCGStab:  Solving for Uy, Initial residual = 0.0101209, Final residual = 1.92166e-09, No Iterations 3
DILUPBiCGStab:  Solving for O2, Initial residual = 0.000779669, Final residual = 1.55789e-09, No Iterations 3
DILUPBiCGStab:  Solving for H2O, Initial residual = 0.000779422, Final residual = 1.55713e-09, No Iterations 3
DILUPBiCGStab:  Solving for CH4, Initial residual = 0, Final residual = 0, No Iterations 0
DILUPBiCGStab:  Solving for CO2, Initial residual = 0.000779422, Final residual = 1.55713e-09, No Iterations 3
DILUPBiCGStab:  Solving for h, Initial residual = 0.00104727, Final residual = 1.86981e-09, No Iterations 3
min/max(T) = 299.021, 1044.97
GAMGPCG:  Solving for p_rgh, Initial residual = 0.018892, Final residual = 4.10356e-07, No Iterations 4
diagonal:  Solving for rho, Initial residual = 0, Final residual = 0, No Iterations 0
time step continuity errors : sum local = 2.63463e-08, global = 7.37977e-09, cumulative = -1.99129e-07
GAMGPCG:  Solving for p_rgh, Initial residual = 0.00347435, Final residual = 3.73919e-07, No Iterations 3
diagonal:  Solving for rho, Initial residual = 0, Final residual = 0, No Iterations 0
time step continuity errors : sum local = 2.18219e-08, global = 3.66168e-10, cumulative = -1.98762e-07
DILUPBiCGStab:  Solving for omega, Initial residual = 6.98777e-05, Final residual = 6.49181e-10, No Iterations 2
DILUPBiCGStab:  Solving for k, Initial residual = 0.00159818, Final residual = 5.0495e-12, No Iterations 4

ExecutionTime = 2.13 s  ClockTime = 2 s

    Overall     = 0.0013461, 0.01
Time = 267

diagonal:  Solving for rho, Initial residual = 0, Final residual = 0, No Iterations 0

Execution time for mesh.update() = 0 s

DILUPBiCGStab:  Solving for Ux, Initial residual = 0.00860382, Final residual = 1.07524e-09, No Iterations 3
DILUPBiCGStab:  Solving for Uy, Initial residual = 0.00997451, Final residual = 2.1874e-09, No Iterations 3
DILUPBiCGStab:  Solving for O2, Initial residual = 0.00078765, Final residual = 1.21498e-09, No Iterations 3
DILUPBiCGStab:  Solving for H2O, Initial residual = 0.00078816, Final residual = 1.2145e-09, No Iterations 3
DILUPBiCGStab:  Solving for CH4, Initial residual = 0, Final residual = 0, No Iterations 0
DILUPBiCGStab:  Solving for CO2, Initial residual = 0.000788161, Final residual = 1.21449e-09, No Iterations 3
DILUPBiCGStab:  Solving for h, Initial residual = 0.00105544, Final residual = 2.43894e-09, No Iterations 3
min/max(T) = 298.664, 1044.97
GAMGPCG:  Solving for p_rgh, Initial residual = 0.0164727, Final residual = 2.75642e-07, No Iterations 4
diagonal:  Solving for rho, Initial residual = 0, Final residual = 0, No Iterations 0
time step continuity errors : sum local = 1.74689e-08, global = 3.9216e-09, cumulative = -1.94841e-07
GAMGPCG:  Solving for p_rgh, Initial residual = 0.00342552, Final residual = 4.53209e-07, No Iterations 3
diagonal:  Solving for rho, Initial residual = 0, Final residual = 0, No Iterations 0
time step continuity errors : sum local = 2.54881e-08, global = 6.30034e-09, cumulative = -1.8854e-07
DILUPBiCGStab:  Solving for omega, Initial residual = 7.5924e-05, Final residual = 5.84048e-10, No Iterations 2
DILUPBiCGStab:  Solving for k, Initial residual = 0.00157094, Final residual = 1.07696e-09, No Iterations 3

ExecutionTime = 2.24 s  ClockTime = 2 s

    Overall     = 0.00134164, 0.01
Time = 268

diagonal:  Solving for rho, Initial residual = 0, Final residual = 0, No Iterations 0

Execution time for mesh.update() = 0 s

DILUPBiCGStab:  Solving for Ux, Initial residual = 0.00830359, Final residual = 8.98382e-09, No Iterations 3
DILUPBiCGStab:  Solving for Uy, Initial residual = 0.00984337, Final residual = 1.69629e-09, No Iterations 3
DILUPBiCGStab:  Solving for O2, Initial residual = 0.000770755, Final residual = 1.0236e-09, No Iterations 3
DILUPBiCGStab:  Solving for H2O, Initial residual = 0.000770815, Final residual = 1.0232e-09, No Iterations 3
DILUPBiCGStab:  Solving for CH4, Initial residual = 0, Final residual = 0, No Iterations 0
DILUPBiCGStab:  Solving for CO2, Initial residual = 0.000770815, Final residual = 1.0232e-09, No Iterations 3
DILUPBiCGStab:  Solving for h, Initial residual = 0.00103691, Final residual = 1.23114e-09, No Iterations 3
min/max(T) = 299.126, 1044.97
GAMGPCG:  Solving for p_rgh, Initial residual = 0.0161403, Final residual = 4.32523e-07, No Iterations 4
diagonal:  Solving for rho, Initial residual = 0, Final residual = 0, No Iterations 0
time step continuity errors : sum local = 2.71136e-08, global = 3.62388e-09, cumulative = -1.84917e-07
GAMGPCG:  Solving for p_rgh, Initial residual = 0.00326534, Final residual = 5.85798e-07, No Iterations 3
diagonal:  Solving for rho, Initial residual = 0, Final residual = 0, No Iterations 0
time step continuity errors : sum local = 3.48466e-08, global = 1.25276e-08, cumulative = -1.72389e-07
DILUPBiCGStab:  Solving for omega, Initial residual = 7.1209e-05, Final residual = 1.68967e-09, No Iterations 2
DILUPBiCGStab:  Solving for k, Initial residual = 0.00156748, Final residual = 5.06948e-09, No Iterations 3

ExecutionTime = 2.35 s  ClockTime = 2 s

    Overall     = 0.0013437, 0.01
Time = 269

diagonal:  Solving for rho, Initial residual = 0, Final residual = 0, No Iterations 0

Execution time for mesh.update() = 0 s

DILUPBiCGStab:  Solving for Ux, Initial residual = 0.00818895, Final residual = 1.28243e-09, No Iterations 3
DILUPBiCGStab:  Solving for Uy, Initial residual = 0.0094596, Final residual = 1.68607e-09, No Iterations 3
DILUPBiCGStab:  Solving for O2, Initial residual = 0.000763964, Final residual = 1.15462e-09, No Iterations 3
DILUPBiCGStab:  Solving for H2O, Initial residual = 0.000764393, Final residual = 1.15443e-09, No Iterations 3
DILUPBiCGStab:  Solving for CH4, Initial residual = 0, Final residual = 0, No Iterations 0
DILUPBiCGStab:  Solving for CO2, Initial residual = 0.000764393, Final residual = 1.15442e-09, No Iterations 3
DILUPBiCGStab:  Solving for h, Initial residual = 0.00101865, Final residual = 2.27875e-09, No Iterations 3
min/max(T) = 298.647, 1044.97
GAMGPCG:  Solving for p_rgh, Initial residual = 0.0163363, Final residual = 2.98983e-07, No Iterations 4
diagonal:  Solving for rho, Initial residual = 0, Final residual = 0, No Iterations 0
time step continuity errors : sum local = 2.00663e-08, global = -2.53282e-09, cumulative = -1.74922e-07
GAMGPCG:  Solving for p_rgh, Initial residual = 0.00313342, Final residual = 5.84892e-07, No Iterations 3
diagonal:  Solving for rho, Initial residual = 0, Final residual = 0, No Iterations 0
time step continuity errors : sum local = 3.56772e-08, global = 1.68026e-08, cumulative = -1.58119e-07
DILUPBiCGStab:  Solving for omega, Initial residual = 7.30076e-05, Final residual = 2.89703e-10, No Iterations 3
DILUPBiCGStab:  Solving for k, Initial residual = 0.00152138, Final residual = 2.79949e-09, No Iterations 3

ExecutionTime = 2.46 s  ClockTime = 2 s

    Overall     = 0.00133687, 0.01
Time = 270

diagonal:  Solving for rho, Initial residual = 0, Final residual = 0, No Iterations 0

Execution time for mesh.update() = 0 s

DILUPBiCGStab:  Solving for Ux, Initial residual = 0.00817961, Final residual = 1.19757e-09, No Iterations 3
DILUPBiCGStab:  Solving for Uy, Initial residual = 0.00958874, Final residual = 1.42252e-09, No Iterations 3
GAMGPCG:  Solving for G, Initial residual = 0.164193, Final residual = 8.60886e-05, No Iterations 5
DILUPBiCGStab:  Solving for O2, Initial residual = 0.000770688, Final residual = 1.23019e-09, No Iterations 3
DILUPBiCGStab:  Solving for H2O, Initial residual = 0.000769753, Final residual = 1.22977e-09, No Iterations 3
DILUPBiCGStab:  Solving for CH4, Initial residual = 0, Final residual = 0, No Iterations 0
DILUPBiCGStab:  Solving for CO2, Initial residual = 0.000769753, Final residual = 1.22977e-09, No Iterations 3
DILUPBiCGStab:  Solving for h, Initial residual = 0.00103642, Final residual = 1.59808e-09, No Iterations 3
min/max(T) = 299.799, 1044.97
GAMGPCG:  Solving for p_rgh, Initial residual = 0.015619, Final residual = 4.32227e-07, No Iterations 4
diagonal:  Solving for rho, Initial residual = 0, Final residual = 0, No Iterations 0
time step continuity errors : sum local = 2.74323e-08, global = 2.38995e-09, cumulative = -1.55729e-07
GAMGPCG:  Solving for p_rgh, Initial residual = 0.00309584, Final residual = 2.10563e-07, No Iterations 4
diagonal:  Solving for rho, Initial residual = 0, Final residual = 0, No Iterations 0
time step continuity errors : sum local = 1.32663e-08, global = 1.31689e-09, cumulative = -1.54412e-07
DILUPBiCGStab:  Solving for omega, Initial residual = 7.80196e-05, Final residual = 7.98638e-09, No Iterations 2
DILUPBiCGStab:  Solving for k, Initial residual = 0.00152547, Final residual = 5.07217e-09, No Iterations 3

ExecutionTime = 2.7 s  ClockTime = 2 s

    Overall     = 0.00134235, 0.01
Time = 271

diagonal:  Solving for rho, Initial residual = 0, Final residual = 0, No Iterations 0

Execution time for mesh.update() = 0 s

DILUPBiCGStab:  Solving for Ux, Initial residual = 0.00802969, Final residual = 8.60959e-09, No Iterations 3
DILUPBiCGStab:  Solving for Uy, Initial residual = 0.00958133, Final residual = 2.78712e-09, No Iterations 3
DILUPBiCGStab:  Solving for O2, Initial residual = 0.000781767, Final residual = 1.49134e-09, No Iterations 3
DILUPBiCGStab:  Solving for H2O, Initial residual = 0.00078201, Final residual = 1.49078e-09, No Iterations 3
DILUPBiCGStab:  Solving for CH4, Initial residual = 0, Final residual = 0, No Iterations 0
DILUPBiCGStab:  Solving for CO2, Initial residual = 0.00078201, Final residual = 1.49077e-09, No Iterations 3
DILUPBiCGStab:  Solving for h, Initial residual = 0.00105438, Final residual = 1.02865e-09, No Iterations 3
min/max(T) = 298.668, 1044.97
GAMGPCG:  Solving for p_rgh, Initial residual = 0.0172049, Final residual = 4.225e-07, No Iterations 4
diagonal:  Solving for rho, Initial residual = 0, Final residual = 0, No Iterations 0
time step continuity errors : sum local = 2.80787e-08, global = -9.02666e-09, cumulative = -1.63439e-07
GAMGPCG:  Solving for p_rgh, Initial residual = 0.0031885, Final residual = 6.45775e-07, No Iterations 3
diagonal:  Solving for rho, Initial residual = 0, Final residual = 0, No Iterations 0
time step continuity errors : sum local = 3.72716e-08, global = 1.53015e-08, cumulative = -1.48137e-07
DILUPBiCGStab:  Solving for omega, Initial residual = 7.34839e-05, Final residual = 6.90423e-09, No Iterations 2
bounding omega, min: -12.7163 max: 62781.5 average: 382.796
DILUPBiCGStab:  Solving for k, Initial residual = 0.00150655, Final residual = 8.74916e-09, No Iterations 2

ExecutionTime = 2.81 s  ClockTime = 2 s

    Overall     = 0.00133161, 0.01
Time = 272

diagonal:  Solving for rho, Initial residual = 0, Final residual = 0, No Iterations 0

Execution time for mesh.update() = 0 s

DILUPBiCGStab:  Solving for Ux, Initial residual = 0.00830854, Final residual = 9.43051e-09, No Iterations 3
DILUPBiCGStab:  Solving for Uy, Initial residual = 0.0100162, Final residual = 4.1944e-09, No Iterations 3
DILUPBiCGStab:  Solving for O2, Initial residual = 0.000781742, Final residual = 1.25364e-09, No Iterations 3
DILUPBiCGStab:  Solving for H2O, Initial residual = 0.000781911, Final residual = 1.25312e-09, No Iterations 3
DILUPBiCGStab:  Solving for CH4, Initial residual = 0, Final residual = 0, No Iterations 0
DILUPBiCGStab:  Solving for CO2, Initial residual = 0.000781911, Final residual = 1.25311e-09, No Iterations 3
DILUPBiCGStab:  Solving for h, Initial residual = 0.00105395, Final residual = 1.48383e-09, No Iterations 3
min/max(T) = 298.57, 1044.97
GAMGPCG:  Solving for p_rgh, Initial residual = 0.0173371, Final residual = 3.69759e-07, No Iterations 4
diagonal:  Solving for rho, Initial residual = 0, Final residual = 0, No Iterations 0
time step continuity errors : sum local = 2.49208e-08, global = -7.42196e-09, cumulative = -1.55559e-07
GAMGPCG:  Solving for p_rgh, Initial residual = 0.00312009, Final residual = 4.70823e-07, No Iterations 3
diagonal:  Solving for rho, Initial residual = 0, Final residual = 0, No Iterations 0
time step continuity errors : sum local = 2.83888e-08, global = 1.04506e-08, cumulative = -1.45109e-07
DILUPBiCGStab:  Solving for omega, Initial residual = 7.51623e-05, Final residual = 9.67198e-09, No Iterations 2
DILUPBiCGStab:  Solving for k, Initial residual = 0.00150097, Final residual = 7.60554e-09, No Iterations 2

ExecutionTime = 2.92 s  ClockTime = 3 s

    Overall     = 0.00133472, 0.01
Time = 273

diagonal:  Solving for rho, Initial residual = 0, Final residual = 0, No Iterations 0

Execution time for mesh.update() = 0 s

DILUPBiCGStab:  Solving for Ux, Initial residual = 0.00795045, Final residual = 7.84229e-09, No Iterations 3
DILUPBiCGStab:  Solving for Uy, Initial residual = 0.00983395, Final residual = 1.48916e-09, No Iterations 3
DILUPBiCGStab:  Solving for O2, Initial residual = 0.000776342, Final residual = 1.30999e-09, No Iterations 3
DILUPBiCGStab:  Solving for H2O, Initial residual = 0.000775357, Final residual = 1.30969e-09, No Iterations 3
DILUPBiCGStab:  Solving for CH4, Initial residual = 0, Final residual = 0, No Iterations 0
DILUPBiCGStab:  Solving for CO2, Initial residual = 0.000775357, Final residual = 1.30969e-09, No Iterations 3
DILUPBiCGStab:  Solving for h, Initial residual = 0.0010556, Final residual = 1.08141e-09, No Iterations 3
min/max(T) = 299.677, 1044.97
GAMGPCG:  Solving for p_rgh, Initial residual = 0.018074, Final residual = 3.35359e-07, No Iterations 4
diagonal:  Solving for rho, Initial residual = 0, Final residual = 0, No Iterations 0
time step continuity errors : sum local = 2.2415e-08, global = -7.18446e-09, cumulative = -1.52293e-07
GAMGPCG:  Solving for p_rgh, Initial residual = 0.00346023, Final residual = 6.31616e-07, No Iterations 3
diagonal:  Solving for rho, Initial residual = 0, Final residual = 0, No Iterations 0
time step continuity errors : sum local = 3.6089e-08, global = 1.09873e-08, cumulative = -1.41306e-07
DILUPBiCGStab:  Solving for omega, Initial residual = 7.74704e-05, Final residual = 7.48325e-09, No Iterations 2
DILUPBiCGStab:  Solving for k, Initial residual = 0.00149295, Final residual = 7.03095e-09, No Iterations 2

ExecutionTime = 3.03 s  ClockTime = 3 s

    Overall     = 0.00134148, 0.01
Time = 274

diagonal:  Solving for rho, Initial residual = 0, Final residual = 0, No Iterations 0

Execution time for mesh.update() = 0 s

DILUPBiCGStab:  Solving for Ux, Initial residual = 0.00811695, Final residual = 8.60917e-09, No Iterations 3
DILUPBiCGStab:  Solving for Uy, Initial residual = 0.00975115, Final residual = 1.3293e-09, No Iterations 3
DILUPBiCGStab:  Solving for O2, Initial residual = 0.000763743, Final residual = 1.42211e-09, No Iterations 3
DILUPBiCGStab:  Solving for H2O, Initial residual = 0.000764, Final residual = 1.42167e-09, No Iterations 3
DILUPBiCGStab:  Solving for CH4, Initial residual = 0, Final residual = 0, No Iterations 0
DILUPBiCGStab:  Solving for CO2, Initial residual = 0.000764, Final residual = 1.42167e-09, No Iterations 3
DILUPBiCGStab:  Solving for h, Initial residual = 0.00104878, Final residual = 1.409e-09, No Iterations 3
min/max(T) = 298.632, 1044.97
GAMGPCG:  Solving for p_rgh, Initial residual = 0.0169512, Final residual = 2.16356e-07, No Iterations 4
diagonal:  Solving for rho, Initial residual = 0, Final residual = 0, No Iterations 0
time step continuity errors : sum local = 1.37263e-08, global = -1.2383e-09, cumulative = -1.42544e-07
GAMGPCG:  Solving for p_rgh, Initial residual = 0.00317642, Final residual = 6.12417e-07, No Iterations 3
diagonal:  Solving for rho, Initial residual = 0, Final residual = 0, No Iterations 0
time step continuity errors : sum local = 3.41567e-08, global = 1.2575e-08, cumulative = -1.29969e-07
DILUPBiCGStab:  Solving for omega, Initial residual = 7.74434e-05, Final residual = 7.27417e-09, No Iterations 2
bounding omega, min: -12.3916 max: 62779.2 average: 382.851
DILUPBiCGStab:  Solving for k, Initial residual = 0.00147829, Final residual = 7.19936e-09, No Iterations 2

ExecutionTime = 3.14 s  ClockTime = 3 s

    Overall     = 0.00133515, 0.01
Time = 275

diagonal:  Solving for rho, Initial residual = 0, Final residual = 0, No Iterations 0

Execution time for mesh.update() = 0 s

DILUPBiCGStab:  Solving for Ux, Initial residual = 0.00790802, Final residual = 7.27114e-09, No Iterations 3
DILUPBiCGStab:  Solving for Uy, Initial residual = 0.00968584, Final residual = 1.57581e-09, No Iterations 3
DILUPBiCGStab:  Solving for O2, Initial residual = 0.000765175, Final residual = 1.38103e-09, No Iterations 3
DILUPBiCGStab:  Solving for H2O, Initial residual = 0.000765349, Final residual = 1.38083e-09, No Iterations 3
DILUPBiCGStab:  Solving for CH4, Initial residual = 0, Final residual = 0, No Iterations 0
DILUPBiCGStab:  Solving for CO2, Initial residual = 0.000765349, Final residual = 1.38083e-09, No Iterations 3
DILUPBiCGStab:  Solving for h, Initial residual = 0.00104876, Final residual = 1.70128e-09, No Iterations 3
min/max(T) = 298.549, 1044.97
GAMGPCG:  Solving for p_rgh, Initial residual = 0.0187033, Final residual = 2.7626e-07, No Iterations 4
diagonal:  Solving for rho, Initial residual = 0, Final residual = 0, No Iterations 0
time step continuity errors : sum local = 1.73956e-08, global = 5.67484e-09, cumulative = -1.24294e-07
GAMGPCG:  Solving for p_rgh, Initial residual = 0.0036138, Final residual = 5.60374e-07, No Iterations 3
diagonal:  Solving for rho, Initial residual = 0, Final residual = 0, No Iterations 0
time step continuity errors : sum local = 3.29442e-08, global = 7.89956e-09, cumulative = -1.16395e-07
DILUPBiCGStab:  Solving for omega, Initial residual = 7.53701e-05, Final residual = 8.01981e-09, No Iterations 2
DILUPBiCGStab:  Solving for k, Initial residual = 0.00146412, Final residual = 9.36298e-09, No Iterations 2

ExecutionTime = 3.25 s  ClockTime = 3 s

    Overall     = 0.00134196, 0.01
Time = 276

diagonal:  Solving for rho, Initial residual = 0, Final residual = 0, No Iterations 0

Execution time for mesh.update() = 0 s

DILUPBiCGStab:  Solving for Ux, Initial residual = 0.00816671, Final residual = 9.80855e-09, No Iterations 3
DILUPBiCGStab:  Solving for Uy, Initial residual = 0.00982577, Final residual = 1.56324e-09, No Iterations 3
DILUPBiCGStab:  Solving for O2, Initial residual = 0.000766016, Final residual = 1.25972e-09, No Iterations 3
DILUPBiCGStab:  Solving for H2O, Initial residual = 0.000765012, Final residual = 1.25933e-09, No Iterations 3
DILUPBiCGStab:  Solving for CH4, Initial residual = 0, Final residual = 0, No Iterations 0
DILUPBiCGStab:  Solving for CO2, Initial residual = 0.000765012, Final residual = 1.25933e-09, No Iterations 3
DILUPBiCGStab:  Solving for h, Initial residual = 0.00103879, Final residual = 1.53664e-09, No Iterations 3
min/max(T) = 299.856, 1044.97
GAMGPCG:  Solving for p_rgh, Initial residual = 0.0176949, Final residual = 4.05586e-07, No Iterations 4
diagonal:  Solving for rho, Initial residual = 0, Final residual = 0, No Iterations 0
time step continuity errors : sum local = 2.69003e-08, global = 3.73526e-09, cumulative = -1.1266e-07
GAMGPCG:  Solving for p_rgh, Initial residual = 0.0035801, Final residual = 4.74042e-07, No Iterations 3
diagonal:  Solving for rho, Initial residual = 0, Final residual = 0, No Iterations 0
time step continuity errors : sum local = 2.82544e-08, global = 6.59021e-09, cumulative = -1.06069e-07
DILUPBiCGStab:  Solving for omega, Initial residual = 7.60041e-05, Final residual = 8.27149e-10, No Iterations 2
DILUPBiCGStab:  Solving for k, Initial residual = 0.00145873, Final residual = 7.33984e-10, No Iterations 3

ExecutionTime = 3.36 s  ClockTime = 3 s

    Overall     = 0.00134898, 0.01
Time = 277

diagonal:  Solving for rho, Initial residual = 0, Final residual = 0, No Iterations 0

Execution time for mesh.update() = 0 s

DILUPBiCGStab:  Solving for Ux, Initial residual = 0.00776089, Final residual = 8.82393e-09, No Iterations 3
DILUPBiCGStab:  Solving for Uy, Initial residual = 0.00950437, Final residual = 1.72942e-09, No Iterations 3
DILUPBiCGStab:  Solving for O2, Initial residual = 0.000769009, Final residual = 1.14274e-09, No Iterations 3
DILUPBiCGStab:  Solving for H2O, Initial residual = 0.000769263, Final residual = 1.14244e-09, No Iterations 3
DILUPBiCGStab:  Solving for CH4, Initial residual = 0, Final residual = 0, No Iterations 0
DILUPBiCGStab:  Solving for CO2, Initial residual = 0.000769263, Final residual = 1.14244e-09, No Iterations 3
DILUPBiCGStab:  Solving for h, Initial residual = 0.00105601, Final residual = 9.02385e-09, No Iterations 3
min/max(T) = 298.636, 1044.97
GAMGPCG:  Solving for p_rgh, Initial residual = 0.0165597, Final residual = 2.58452e-07, No Iterations 4
diagonal:  Solving for rho, Initial residual = 0, Final residual = 0, No Iterations 0
time step continuity errors : sum local = 1.74176e-08, global = 3.67468e-09, cumulative = -1.02395e-07
GAMGPCG:  Solving for p_rgh, Initial residual = 0.00332517, Final residual = 4.44161e-07, No Iterations 3
diagonal:  Solving for rho, Initial residual = 0, Final residual = 0, No Iterations 0
time step continuity errors : sum local = 2.56916e-08, global = 8.55963e-09, cumulative = -9.38351e-08
DILUPBiCGStab:  Solving for omega, Initial residual = 7.68734e-05, Final residual = 6.41815e-09, No Iterations 2
bounding omega, min: -19.7758 max: 62788.3 average: 382.892
DILUPBiCGStab:  Solving for k, Initial residual = 0.00144912, Final residual = 7.96001e-10, No Iterations 3

ExecutionTime = 3.47 s  ClockTime = 3 s

    Overall     = 0.00134259, 0.01
Time = 278

diagonal:  Solving for rho, Initial residual = 0, Final residual = 0, No Iterations 0

Execution time for mesh.update() = 0 s

DILUPBiCGStab:  Solving for Ux, Initial residual = 0.00769823, Final residual = 9.39429e-09, No Iterations 3
DILUPBiCGStab:  Solving for Uy, Initial residual = 0.0096187, Final residual = 1.78032e-09, No Iterations 3
DILUPBiCGStab:  Solving for O2, Initial residual = 0.000739122, Final residual = 9.94974e-10, No Iterations 3
DILUPBiCGStab:  Solving for H2O, Initial residual = 0.000739353, Final residual = 9.94721e-10, No Iterations 3
DILUPBiCGStab:  Solving for CH4, Initial residual = 0, Final residual = 0, No Iterations 0
DILUPBiCGStab:  Solving for CO2, Initial residual = 0.000739353, Final residual = 9.94721e-10, No Iterations 3
DILUPBiCGStab:  Solving for h, Initial residual = 0.00100199, Final residual = 2.99669e-09, No Iterations 3
min/max(T) = 298.544, 1044.97
GAMGPCG:  Solving for p_rgh, Initial residual = 0.0160094, Final residual = 2.79755e-07, No Iterations 4
diagonal:  Solving for rho, Initial residual = 0, Final residual = 0, No Iterations 0
time step continuity errors : sum local = 1.82077e-08, global = 6.02588e-10, cumulative = -9.32325e-08
GAMGPCG:  Solving for p_rgh, Initial residual = 0.00338122, Final residual = 6.68684e-07, No Iterations 3
diagonal:  Solving for rho, Initial residual = 0, Final residual = 0, No Iterations 0
time step continuity errors : sum local = 4.09482e-08, global = 2.34735e-08, cumulative = -6.9759e-08
DILUPBiCGStab:  Solving for omega, Initial residual = 6.86238e-05, Final residual = 6.00138e-09, No Iterations 2
DILUPBiCGStab:  Solving for k, Initial residual = 0.00143706, Final residual = 9.56744e-09, No Iterations 2

ExecutionTime = 3.58 s  ClockTime = 3 s

    Overall     = 0.00135005, 0.01
Time = 279

diagonal:  Solving for rho, Initial residual = 0, Final residual = 0, No Iterations 0

Execution time for mesh.update() = 0 s

DILUPBiCGStab:  Solving for Ux, Initial residual = 0.00758531, Final residual = 9.14912e-09, No Iterations 3
DILUPBiCGStab:  Solving for Uy, Initial residual = 0.00922519, Final residual = 1.77115e-09, No Iterations 3
DILUPBiCGStab:  Solving for O2, Initial residual = 0.000735563, Final residual = 1.00594e-09, No Iterations 3
DILUPBiCGStab:  Solving for H2O, Initial residual = 0.00073458, Final residual = 1.00598e-09, No Iterations 3
DILUPBiCGStab:  Solving for CH4, Initial residual = 0, Final residual = 0, No Iterations 0
DILUPBiCGStab:  Solving for CO2, Initial residual = 0.00073458, Final residual = 1.00598e-09, No Iterations 3
DILUPBiCGStab:  Solving for h, Initial residual = 0.000987303, Final residual = 2.36404e-09, No Iterations 3
min/max(T) = 299.652, 1044.97
GAMGPCG:  Solving for p_rgh, Initial residual = 0.0163398, Final residual = 2.52777e-07, No Iterations 4
diagonal:  Solving for rho, Initial residual = 0, Final residual = 0, No Iterations 0
time step continuity errors : sum local = 1.68961e-08, global = -1.3326e-09, cumulative = -7.10916e-08
GAMGPCG:  Solving for p_rgh, Initial residual = 0.00301375, Final residual = 5.62687e-07, No Iterations 3
diagonal:  Solving for rho, Initial residual = 0, Final residual = 0, No Iterations 0
time step continuity errors : sum local = 3.57733e-08, global = 1.9497e-08, cumulative = -5.15947e-08
DILUPBiCGStab:  Solving for omega, Initial residual = 7.71835e-05, Final residual = 5.85643e-09, No Iterations 2
DILUPBiCGStab:  Solving for k, Initial residual = 0.00143181, Final residual = 8.10308e-09, No Iterations 2

ExecutionTime = 3.69 s  ClockTime = 3 s

    Overall     = 0.00135288, 0.01
Time = 280

diagonal:  Solving for rho, Initial residual = 0, Final residual = 0, No Iterations 0

Execution time for mesh.update() = 0 s

DILUPBiCGStab:  Solving for Ux, Initial residual = 0.00748862, Final residual = 9.00462e-09, No Iterations 3
DILUPBiCGStab:  Solving for Uy, Initial residual = 0.00944059, Final residual = 1.52972e-09, No Iterations 3
GAMGPCG:  Solving for G, Initial residual = 0.125533, Final residual = 4.66952e-05, No Iterations 6
DILUPBiCGStab:  Solving for O2, Initial residual = 0.000734159, Final residual = 1.21062e-09, No Iterations 3
DILUPBiCGStab:  Solving for H2O, Initial residual = 0.000734422, Final residual = 1.21035e-09, No Iterations 3
DILUPBiCGStab:  Solving for CH4, Initial residual = 0, Final residual = 0, No Iterations 0
DILUPBiCGStab:  Solving for CO2, Initial residual = 0.000734422, Final residual = 1.21035e-09, No Iterations 3
DILUPBiCGStab:  Solving for h, Initial residual = 0.000990776, Final residual = 1.82807e-09, No Iterations 3
min/max(T) = 298.622, 1044.97
GAMGPCG:  Solving for p_rgh, Initial residual = 0.0145786, Final residual = 3.30447e-07, No Iterations 4
diagonal:  Solving for rho, Initial residual = 0, Final residual = 0, No Iterations 0
time step continuity errors : sum local = 2.14397e-08, global = -4.54665e-09, cumulative = -5.61413e-08
GAMGPCG:  Solving for p_rgh, Initial residual = 0.0032867, Final residual = 6.23115e-07, No Iterations 3
diagonal:  Solving for rho, Initial residual = 0, Final residual = 0, No Iterations 0
time step continuity errors : sum local = 3.77267e-08, global = 1.70149e-08, cumulative = -3.91264e-08
DILUPBiCGStab:  Solving for omega, Initial residual = 7.19899e-05, Final residual = 5.84541e-09, No Iterations 2
bounding omega, min: -7.83108 max: 62794 average: 383.121
DILUPBiCGStab:  Solving for k, Initial residual = 0.0014199, Final residual = 7.93551e-09, No Iterations 2

ExecutionTime = 3.92 s  ClockTime = 4 s

    Overall     = 0.00134872, 0.01
Time = 281

diagonal:  Solving for rho, Initial residual = 0, Final residual = 0, No Iterations 0

Execution time for mesh.update() = 0.01 s

DILUPBiCGStab:  Solving for Ux, Initial residual = 0.00727449, Final residual = 8.37726e-09, No Iterations 3
DILUPBiCGStab:  Solving for Uy, Initial residual = 0.00906757, Final residual = 3.67808e-10, No Iterations 4
DILUPBiCGStab:  Solving for O2, Initial residual = 0.000739597, Final residual = 1.2951e-09, No Iterations 3
DILUPBiCGStab:  Solving for H2O, Initial residual = 0.000739781, Final residual = 1.29458e-09, No Iterations 3
DILUPBiCGStab:  Solving for CH4, Initial residual = 0, Final residual = 0, No Iterations 0
DILUPBiCGStab:  Solving for CO2, Initial residual = 0.000739781, Final residual = 1.29458e-09, No Iterations 3
DILUPBiCGStab:  Solving for h, Initial residual = 0.000985176, Final residual = 1.75245e-09, No Iterations 3
min/max(T) = 298.555, 1044.97
GAMGPCG:  Solving for p_rgh, Initial residual = 0.0173095, Final residual = 3.89478e-07, No Iterations 4
diagonal:  Solving for rho, Initial residual = 0, Final residual = 0, No Iterations 0
time step continuity errors : sum local = 2.61305e-08, global = -1.00983e-08, cumulative = -4.92247e-08
GAMGPCG:  Solving for p_rgh, Initial residual = 0.00299248, Final residual = 6.35128e-07, No Iterations 3
diagonal:  Solving for rho, Initial residual = 0, Final residual = 0, No Iterations 0
time step continuity errors : sum local = 3.71961e-08, global = 1.42931e-08, cumulative = -3.49316e-08
DILUPBiCGStab:  Solving for omega, Initial residual = 6.64589e-05, Final residual = 6.36197e-09, No Iterations 2
DILUPBiCGStab:  Solving for k, Initial residual = 0.0014078, Final residual = 8.03602e-09, No Iterations 2

ExecutionTime = 4.03 s  ClockTime = 4 s

    Overall     = 0.00135406, 0.01
Time = 282

diagonal:  Solving for rho, Initial residual = 0, Final residual = 0, No Iterations 0

Execution time for mesh.update() = 0 s

DILUPBiCGStab:  Solving for Ux, Initial residual = 0.00758536, Final residual = 9.28075e-09, No Iterations 3
DILUPBiCGStab:  Solving for Uy, Initial residual = 0.00975167, Final residual = 1.95992e-09, No Iterations 3
DILUPBiCGStab:  Solving for O2, Initial residual = 0.000738029, Final residual = 1.32702e-09, No Iterations 3
DILUPBiCGStab:  Solving for H2O, Initial residual = 0.00073704, Final residual = 1.32675e-09, No Iterations 3
DILUPBiCGStab:  Solving for CH4, Initial residual = 0, Final residual = 0, No Iterations 0
DILUPBiCGStab:  Solving for CO2, Initial residual = 0.00073704, Final residual = 1.32675e-09, No Iterations 3
DILUPBiCGStab:  Solving for h, Initial residual = 0.000980681, Final residual = 2.08583e-09, No Iterations 3
min/max(T) = 299.87, 1044.97
GAMGPCG:  Solving for p_rgh, Initial residual = 0.0166548, Final residual = 3.16077e-07, No Iterations 4
diagonal:  Solving for rho, Initial residual = 0, Final residual = 0, No Iterations 0
time step continuity errors : sum local = 2.06535e-08, global = -3.26922e-09, cumulative = -3.82009e-08
GAMGPCG:  Solving for p_rgh, Initial residual = 0.0032351, Final residual = 4.30519e-07, No Iterations 3
diagonal:  Solving for rho, Initial residual = 0, Final residual = 0, No Iterations 0
time step continuity errors : sum local = 2.76638e-08, global = 9.18466e-09, cumulative = -2.90162e-08
DILUPBiCGStab:  Solving for omega, Initial residual = 7.46857e-05, Final residual = 7.6536e-09, No Iterations 2
DILUPBiCGStab:  Solving for k, Initial residual = 0.0013748, Final residual = 8.32619e-09, No Iterations 2

ExecutionTime = 4.14 s  ClockTime = 4 s

    Overall     = 0.00136364, 0.01
Time = 283

diagonal:  Solving for rho, Initial residual = 0, Final residual = 0, No Iterations 0

Execution time for mesh.update() = 0 s

DILUPBiCGStab:  Solving for Ux, Initial residual = 0.00738506, Final residual = 8.10108e-09, No Iterations 3
DILUPBiCGStab:  Solving for Uy, Initial residual = 0.00934201, Final residual = 1.79625e-09, No Iterations 3
DILUPBiCGStab:  Solving for O2, Initial residual = 0.000732752, Final residual = 1.38251e-09, No Iterations 3
DILUPBiCGStab:  Solving for H2O, Initial residual = 0.000733009, Final residual = 1.38239e-09, No Iterations 3
DILUPBiCGStab:  Solving for CH4, Initial residual = 0, Final residual = 0, No Iterations 0
DILUPBiCGStab:  Solving for CO2, Initial residual = 0.000733009, Final residual = 1.38239e-09, No Iterations 3
DILUPBiCGStab:  Solving for h, Initial residual = 0.000983675, Final residual = 1.4815e-09, No Iterations 3
min/max(T) = 298.68, 1044.97
GAMGPCG:  Solving for p_rgh, Initial residual = 0.0174506, Final residual = 4.48004e-07, No Iterations 4
diagonal:  Solving for rho, Initial residual = 0, Final residual = 0, No Iterations 0
time step continuity errors : sum local = 2.91736e-08, global = -3.77097e-09, cumulative = -3.27872e-08
GAMGPCG:  Solving for p_rgh, Initial residual = 0.00329462, Final residual = 6.52015e-07, No Iterations 3
diagonal:  Solving for rho, Initial residual = 0, Final residual = 0, No Iterations 0
time step continuity errors : sum local = 3.71486e-08, global = 1.34956e-08, cumulative = -1.92916e-08
DILUPBiCGStab:  Solving for omega, Initial residual = 7.08802e-05, Final residual = 7.41538e-09, No Iterations 2
bounding omega, min: -11.0209 max: 62803.4 average: 383.315
DILUPBiCGStab:  Solving for k, Initial residual = 0.00138737, Final residual = 8.17517e-09, No Iterations 2

ExecutionTime = 4.25 s  ClockTime = 4 s

    Overall     = 0.00135716, 0.01
Time = 284

diagonal:  Solving for rho, Initial residual = 0, Final residual = 0, No Iterations 0

Execution time for mesh.update() = 0 s

DILUPBiCGStab:  Solving for Ux, Initial residual = 0.00756039, Final residual = 7.34705e-09, No Iterations 3
DILUPBiCGStab:  Solving for Uy, Initial residual = 0.0093969, Final residual = 1.86433e-09, No Iterations 3
DILUPBiCGStab:  Solving for O2, Initial residual = 0.000750639, Final residual = 1.54221e-09, No Iterations 3
DILUPBiCGStab:  Solving for H2O, Initial residual = 0.000750867, Final residual = 1.5421e-09, No Iterations 3
DILUPBiCGStab:  Solving for CH4, Initial residual = 0, Final residual = 0, No Iterations 0
DILUPBiCGStab:  Solving for CO2, Initial residual = 0.000750867, Final residual = 1.5421e-09, No Iterations 3
DILUPBiCGStab:  Solving for h, Initial residual = 0.0010155, Final residual = 5.8142e-09, No Iterations 3
min/max(T) = 298.59, 1044.97
GAMGPCG:  Solving for p_rgh, Initial residual = 0.0166047, Final residual = 2.25925e-07, No Iterations 4
diagonal:  Solving for rho, Initial residual = 0, Final residual = 0, No Iterations 0
time step continuity errors : sum local = 1.52256e-08, global = -3.49398e-09, cumulative = -2.27855e-08
GAMGPCG:  Solving for p_rgh, Initial residual = 0.00316812, Final residual = 5.55498e-07, No Iterations 3
diagonal:  Solving for rho, Initial residual = 0, Final residual = 0, No Iterations 0
time step continuity errors : sum local = 3.14876e-08, global = 1.07076e-08, cumulative = -1.20779e-08
DILUPBiCGStab:  Solving for omega, Initial residual = 6.93829e-05, Final residual = 9.39823e-09, No Iterations 2
DILUPBiCGStab:  Solving for k, Initial residual = 0.00135729, Final residual = 8.2462e-09, No Iterations 2

ExecutionTime = 4.36 s  ClockTime = 4 s

    Overall     = 0.00136502, 0.01
Time = 285

diagonal:  Solving for rho, Initial residual = 0, Final residual = 0, No Iterations 0

Execution time for mesh.update() = 0 s

DILUPBiCGStab:  Solving for Ux, Initial residual = 0.00746382, Final residual = 9.58977e-09, No Iterations 3
DILUPBiCGStab:  Solving for Uy, Initial residual = 0.00949494, Final residual = 1.7805e-09, No Iterations 3
DILUPBiCGStab:  Solving for O2, Initial residual = 0.000726933, Final residual = 1.48155e-09, No Iterations 3
DILUPBiCGStab:  Solving for H2O, Initial residual = 0.00072597, Final residual = 1.48112e-09, No Iterations 3
DILUPBiCGStab:  Solving for CH4, Initial residual = 0, Final residual = 0, No Iterations 0
DILUPBiCGStab:  Solving for CO2, Initial residual = 0.00072597, Final residual = 1.48112e-09, No Iterations 3
DILUPBiCGStab:  Solving for h, Initial residual = 0.000958044, Final residual = 1.90786e-09, No Iterations 3
min/max(T) = 299.867, 1044.97
GAMGPCG:  Solving for p_rgh, Initial residual = 0.0158302, Final residual = 2.84642e-07, No Iterations 4
diagonal:  Solving for rho, Initial residual = 0, Final residual = 0, No Iterations 0
time step continuity errors : sum local = 1.78109e-08, global = -1.73153e-09, cumulative = -1.38095e-08
GAMGPCG:  Solving for p_rgh, Initial residual = 0.00356844, Final residual = 5.45923e-07, No Iterations 3
diagonal:  Solving for rho, Initial residual = 0, Final residual = 0, No Iterations 0
time step continuity errors : sum local = 3.28259e-08, global = 1.3897e-08, cumulative = 8.7525e-11
DILUPBiCGStab:  Solving for omega, Initial residual = 7.21117e-05, Final residual = 7.94403e-09, No Iterations 2
DILUPBiCGStab:  Solving for k, Initial residual = 0.00136588, Final residual = 8.37812e-09, No Iterations 2

ExecutionTime = 4.47 s  ClockTime = 4 s

    Overall     = 0.00137466, 0.01
Time = 286

diagonal:  Solving for rho, Initial residual = 0, Final residual = 0, No Iterations 0

Execution time for mesh.update() = 0 s

DILUPBiCGStab:  Solving for Ux, Initial residual = 0.00722145, Final residual = 1.14572e-09, No Iterations 3
DILUPBiCGStab:  Solving for Uy, Initial residual = 0.00924987, Final residual = 2.18029e-09, No Iterations 3
DILUPBiCGStab:  Solving for O2, Initial residual = 0.000738813, Final residual = 1.51164e-09, No Iterations 3
DILUPBiCGStab:  Solving for H2O, Initial residual = 0.000739065, Final residual = 1.51156e-09, No Iterations 3
DILUPBiCGStab:  Solving for CH4, Initial residual = 0, Final residual = 0, No Iterations 0
DILUPBiCGStab:  Solving for CO2, Initial residual = 0.000739065, Final residual = 1.51156e-09, No Iterations 3
DILUPBiCGStab:  Solving for h, Initial residual = 0.000990191, Final residual = 2.61277e-09, No Iterations 3
min/max(T) = 298.711, 1044.97
GAMGPCG:  Solving for p_rgh, Initial residual = 0.0163119, Final residual = 3.59168e-07, No Iterations 4
diagonal:  Solving for rho, Initial residual = 0, Final residual = 0, No Iterations 0
time step continuity errors : sum local = 2.29722e-08, global = 5.58965e-09, cumulative = 5.67718e-09
GAMGPCG:  Solving for p_rgh, Initial residual = 0.00309675, Final residual = 5.80164e-07, No Iterations 3
diagonal:  Solving for rho, Initial residual = 0, Final residual = 0, No Iterations 0
time step continuity errors : sum local = 3.11805e-08, global = -7.65491e-10, cumulative = 4.91169e-09
DILUPBiCGStab:  Solving for omega, Initial residual = 6.61222e-05, Final residual = 7.64886e-09, No Iterations 2
bounding omega, min: -3.16797 max: 62820.8 average: 383.383
DILUPBiCGStab:  Solving for k, Initial residual = 0.00135297, Final residual = 1.26855e-09, No Iterations 3

ExecutionTime = 4.58 s  ClockTime = 4 s

    Overall     = 0.00137064, 0.01
Time = 287

diagonal:  Solving for rho, Initial residual = 0, Final residual = 0, No Iterations 0

Execution time for mesh.update() = 0 s

DILUPBiCGStab:  Solving for Ux, Initial residual = 0.00732338, Final residual = 9.89148e-09, No Iterations 3
DILUPBiCGStab:  Solving for Uy, Initial residual = 0.00912459, Final residual = 2.21091e-09, No Iterations 3
DILUPBiCGStab:  Solving for O2, Initial residual = 0.000734294, Final residual = 1.33636e-09, No Iterations 3
DILUPBiCGStab:  Solving for H2O, Initial residual = 0.000734608, Final residual = 1.33677e-09, No Iterations 3
DILUPBiCGStab:  Solving for CH4, Initial residual = 0, Final residual = 0, No Iterations 0
DILUPBiCGStab:  Solving for CO2, Initial residual = 0.000734608, Final residual = 1.33677e-09, No Iterations 3
DILUPBiCGStab:  Solving for h, Initial residual = 0.000979054, Final residual = 1.94423e-09, No Iterations 3
min/max(T) = 298.624, 1044.97
GAMGPCG:  Solving for p_rgh, Initial residual = 0.0168915, Final residual = 2.14675e-07, No Iterations 4
diagonal:  Solving for rho, Initial residual = 0, Final residual = 0, No Iterations 0
time step continuity errors : sum local = 1.42046e-08, global = -1.98797e-09, cumulative = 2.92372e-09
GAMGPCG:  Solving for p_rgh, Initial residual = 0.00328769, Final residual = 7.08583e-07, No Iterations 3
diagonal:  Solving for rho, Initial residual = 0, Final residual = 0, No Iterations 0
time step continuity errors : sum local = 4.02346e-08, global = 2.07629e-08, cumulative = 2.36866e-08
DILUPBiCGStab:  Solving for omega, Initial residual = 7.16503e-05, Final residual = 9.01984e-09, No Iterations 2
DILUPBiCGStab:  Solving for k, Initial residual = 0.00134281, Final residual = 8.67196e-09, No Iterations 2

ExecutionTime = 4.69 s  ClockTime = 4 s

    Overall     = 0.00137679, 0.01
Time = 288

diagonal:  Solving for rho, Initial residual = 0, Final residual = 0, No Iterations 0

Execution time for mesh.update() = 0 s

DILUPBiCGStab:  Solving for Ux, Initial residual = 0.00755376, Final residual = 1.40873e-09, No Iterations 3
DILUPBiCGStab:  Solving for Uy, Initial residual = 0.00932316, Final residual = 1.77437e-09, No Iterations 3
DILUPBiCGStab:  Solving for O2, Initial residual = 0.000721765, Final residual = 1.21283e-09, No Iterations 3
DILUPBiCGStab:  Solving for H2O, Initial residual = 0.000720718, Final residual = 1.21268e-09, No Iterations 3
DILUPBiCGStab:  Solving for CH4, Initial residual = 0, Final residual = 0, No Iterations 0
DILUPBiCGStab:  Solving for CO2, Initial residual = 0.000720718, Final residual = 1.21268e-09, No Iterations 3
DILUPBiCGStab:  Solving for h, Initial residual = 0.000945049, Final residual = 1.46964e-09, No Iterations 3
min/max(T) = 300, 1044.97
GAMGPCG:  Solving for p_rgh, Initial residual = 0.0146067, Final residual = 2.46796e-07, No Iterations 4
diagonal:  Solving for rho, Initial residual = 0, Final residual = 0, No Iterations 0
time step continuity errors : sum local = 1.60149e-08, global = 4.29887e-11, cumulative = 2.37296e-08
GAMGPCG:  Solving for p_rgh, Initial residual = 0.00327371, Final residual = 4.96361e-07, No Iterations 3
diagonal:  Solving for rho, Initial residual = 0, Final residual = 0, No Iterations 0
time step continuity errors : sum local = 3.13337e-08, global = 1.59932e-08, cumulative = 3.97227e-08
DILUPBiCGStab:  Solving for omega, Initial residual = 7.65654e-05, Final residual = 5.60288e-10, No Iterations 2
DILUPBiCGStab:  Solving for k, Initial residual = 0.00133457, Final residual = 8.36879e-09, No Iterations 2

ExecutionTime = 4.8 s  ClockTime = 4 s

    Overall     = 0.00139883, 0.01
Time = 289

diagonal:  Solving for rho, Initial residual = 0, Final residual = 0, No Iterations 0

Execution time for mesh.update() = 0 s

DILUPBiCGStab:  Solving for Ux, Initial residual = 0.00734403, Final residual = 1.15472e-09, No Iterations 3
DILUPBiCGStab:  Solving for Uy, Initial residual = 0.00880577, Final residual = 1.77404e-09, No Iterations 3
DILUPBiCGStab:  Solving for O2, Initial residual = 0.000726544, Final residual = 1.19704e-09, No Iterations 3
DILUPBiCGStab:  Solving for H2O, Initial residual = 0.000726748, Final residual = 1.19704e-09, No Iterations 3
DILUPBiCGStab:  Solving for CH4, Initial residual = 0, Final residual = 0, No Iterations 0
DILUPBiCGStab:  Solving for CO2, Initial residual = 0.000726748, Final residual = 1.19704e-09, No Iterations 3
DILUPBiCGStab:  Solving for h, Initial residual = 0.000950599, Final residual = 1.60089e-09, No Iterations 3
min/max(T) = 298.728, 1044.97
GAMGPCG:  Solving for p_rgh, Initial residual = 0.0140579, Final residual = 3.37667e-07, No Iterations 4
diagonal:  Solving for rho, Initial residual = 0, Final residual = 0, No Iterations 0
time step continuity errors : sum local = 2.07266e-08, global = 1.14858e-09, cumulative = 4.08713e-08
GAMGPCG:  Solving for p_rgh, Initial residual = 0.00276191, Final residual = 6.89377e-07, No Iterations 3
diagonal:  Solving for rho, Initial residual = 0, Final residual = 0, No Iterations 0
time step continuity errors : sum local = 3.90935e-08, global = 1.49794e-08, cumulative = 5.58508e-08
DILUPBiCGStab:  Solving for omega, Initial residual = 7.69386e-05, Final residual = 9.74865e-09, No Iterations 2
DILUPBiCGStab:  Solving for k, Initial residual = 0.0013335, Final residual = 8.2184e-09, No Iterations 2

ExecutionTime = 4.91 s  ClockTime = 5 s

    Overall     = 0.00136928, 0.01
Time = 290

diagonal:  Solving for rho, Initial residual = 0, Final residual = 0, No Iterations 0

Execution time for mesh.update() = 0 s

DILUPBiCGStab:  Solving for Ux, Initial residual = 0.00729378, Final residual = 1.05569e-09, No Iterations 3
DILUPBiCGStab:  Solving for Uy, Initial residual = 0.00893553, Final residual = 1.91455e-09, No Iterations 3
GAMGPCG:  Solving for G, Initial residual = 0.0819668, Final residual = 6.24848e-05, No Iterations 5
DILUPBiCGStab:  Solving for O2, Initial residual = 0.000717305, Final residual = 1.03479e-09, No Iterations 3
DILUPBiCGStab:  Solving for H2O, Initial residual = 0.000717615, Final residual = 1.03482e-09, No Iterations 3
DILUPBiCGStab:  Solving for CH4, Initial residual = 0, Final residual = 0, No Iterations 0
DILUPBiCGStab:  Solving for CO2, Initial residual = 0.000717615, Final residual = 1.03482e-09, No Iterations 3
DILUPBiCGStab:  Solving for h, Initial residual = 0.000922834, Final residual = 1.29146e-09, No Iterations 3
min/max(T) = 298.686, 1044.97
GAMGPCG:  Solving for p_rgh, Initial residual = 0.0136688, Final residual = 1.95363e-07, No Iterations 4
diagonal:  Solving for rho, Initial residual = 0, Final residual = 0, No Iterations 0
time step continuity errors : sum local = 1.23672e-08, global = 1.59658e-09, cumulative = 5.74473e-08
GAMGPCG:  Solving for p_rgh, Initial residual = 0.00281471, Final residual = 5.46234e-07, No Iterations 3
diagonal:  Solving for rho, Initial residual = 0, Final residual = 0, No Iterations 0
time step continuity errors : sum local = 3.21366e-08, global = 1.62593e-08, cumulative = 7.37066e-08
DILUPBiCGStab:  Solving for omega, Initial residual = 6.94491e-05, Final residual = 8.71215e-09, No Iterations 2
DILUPBiCGStab:  Solving for k, Initial residual = 0.00131017, Final residual = 8.18571e-09, No Iterations 2

ExecutionTime = 5.14 s  ClockTime = 5 s

    Overall     = 0.00138039, 0.01
Time = 291

diagonal:  Solving for rho, Initial residual = 0, Final residual = 0, No Iterations 0

Execution time for mesh.update() = 0.01 s

DILUPBiCGStab:  Solving for Ux, Initial residual = 0.00722078, Final residual = 9.34958e-09, No Iterations 3
DILUPBiCGStab:  Solving for Uy, Initial residual = 0.0087662, Final residual = 9.47311e-10, No Iterations 4
DILUPBiCGStab:  Solving for O2, Initial residual = 0.000717821, Final residual = 1.06436e-09, No Iterations 3
DILUPBiCGStab:  Solving for H2O, Initial residual = 0.000717081, Final residual = 1.06421e-09, No Iterations 3
DILUPBiCGStab:  Solving for CH4, Initial residual = 0, Final residual = 0, No Iterations 0
DILUPBiCGStab:  Solving for CO2, Initial residual = 0.000717081, Final residual = 1.06421e-09, No Iterations 3
DILUPBiCGStab:  Solving for h, Initial residual = 0.000922917, Final residual = 1.63455e-09, No Iterations 3
min/max(T) = 299.33, 1044.97
GAMGPCG:  Solving for p_rgh, Initial residual = 0.0160047, Final residual = 3.95426e-07, No Iterations 4
diagonal:  Solving for rho, Initial residual = 0, Final residual = 0, No Iterations 0
time step continuity errors : sum local = 2.5947e-08, global = -5.14281e-09, cumulative = 6.85638e-08
GAMGPCG:  Solving for p_rgh, Initial residual = 0.00296495, Final residual = 1.75267e-07, No Iterations 4
diagonal:  Solving for rho, Initial residual = 0, Final residual = 0, No Iterations 0
time step continuity errors : sum local = 1.14601e-08, global = 1.56994e-09, cumulative = 7.01337e-08
DILUPBiCGStab:  Solving for omega, Initial residual = 6.29936e-05, Final residual = 7.05809e-09, No Iterations 2
DILUPBiCGStab:  Solving for k, Initial residual = 0.00131354, Final residual = 7.722e-09, No Iterations 2

ExecutionTime = 5.26 s  ClockTime = 5 s

    Overall     = 0.00138205, 0.01
Time = 292

diagonal:  Solving for rho, Initial residual = 0, Final residual = 0, No Iterations 0

Execution time for mesh.update() = 0 s

DILUPBiCGStab:  Solving for Ux, Initial residual = 0.00732506, Final residual = 9.09349e-09, No Iterations 3
DILUPBiCGStab:  Solving for Uy, Initial residual = 0.00886363, Final residual = 2.10044e-09, No Iterations 3
DILUPBiCGStab:  Solving for O2, Initial residual = 0.000716087, Final residual = 1.16851e-09, No Iterations 3
DILUPBiCGStab:  Solving for H2O, Initial residual = 0.00071636, Final residual = 1.16849e-09, No Iterations 3
DILUPBiCGStab:  Solving for CH4, Initial residual = 0, Final residual = 0, No Iterations 0
DILUPBiCGStab:  Solving for CO2, Initial residual = 0.00071636, Final residual = 1.16849e-09, No Iterations 3
DILUPBiCGStab:  Solving for h, Initial residual = 0.000926742, Final residual = 3.15623e-09, No Iterations 3
min/max(T) = 298.771, 1044.97
GAMGPCG:  Solving for p_rgh, Initial residual = 0.0153886, Final residual = 2.71574e-07, No Iterations 4
diagonal:  Solving for rho, Initial residual = 0, Final residual = 0, No Iterations 0
time step continuity errors : sum local = 1.75913e-08, global = 3.95995e-09, cumulative = 7.40937e-08
[...]

DILUPBiCGStab:  Solving for Ux, Initial residual = 0.00194804, Final residual = 1.87153e-09, No Iterations 3
DILUPBiCGStab:  Solving for Uy, Initial residual = 0.00228615, Final residual = 2.87261e-09, No Iterations 3
GAMGPCG:  Solving for G, Initial residual = 0.0251425, Final residual = 9.71615e-05, No Iterations 2
DILUPBiCGStab:  Solving for O2, Initial residual = 0.000312568, Final residual = 3.23891e-09, No Iterations 2
DILUPBiCGStab:  Solving for H2O, Initial residual = 0.000312936, Final residual = 3.23421e-09, No Iterations 2
DILUPBiCGStab:  Solving for CH4, Initial residual = 0, Final residual = 0, No Iterations 0
DILUPBiCGStab:  Solving for CO2, Initial residual = 0.000312936, Final residual = 3.23421e-09, No Iterations 2
DILUPBiCGStab:  Solving for h, Initial residual = 0.000565557, Final residual = 3.25772e-09, No Iterations 2
min/max(T) = 298.476, 1044.97
GAMGPCG:  Solving for p_rgh, Initial residual = 0.0120089, Final residual = 1.72933e-07, No Iterations 4
diagonal:  Solving for rho, Initial residual = 0, Final residual = 0, No Iterations 0
time step continuity errors : sum local = 9.61825e-09, global = 7.42928e-10, cumulative = 6.20131e-06
GAMGPCG:  Solving for p_rgh, Initial residual = 0.00260054, Final residual = 2.38135e-07, No Iterations 3
diagonal:  Solving for rho, Initial residual = 0, Final residual = 0, No Iterations 0
time step continuity errors : sum local = 1.22089e-08, global = -3.51216e-09, cumulative = 6.19779e-06
DILUPBiCGStab:  Solving for omega, Initial residual = 5.39038e-05, Final residual = 4.30309e-09, No Iterations 2
DILUPBiCGStab:  Solving for k, Initial residual = 0.000794588, Final residual = 6.32486e-09, No Iterations 2

ExecutionTime = 270.6 s  ClockTime = 270 s

    Overall     = 0.00132887, 0.01
Time = 2491

diagonal:  Solving for rho, Initial residual = 0, Final residual = 0, No Iterations 0

Execution time for mesh.update() = 0 s

DILUPBiCGStab:  Solving for Ux, Initial residual = 0.00178558, Final residual = 1.9449e-09, No Iterations 3
DILUPBiCGStab:  Solving for Uy, Initial residual = 0.00218785, Final residual = 2.47469e-09, No Iterations 3
DILUPBiCGStab:  Solving for O2, Initial residual = 0.000316913, Final residual = 3.09068e-09, No Iterations 2
DILUPBiCGStab:  Solving for H2O, Initial residual = 0.00031714, Final residual = 3.09437e-09, No Iterations 2
DILUPBiCGStab:  Solving for CH4, Initial residual = 0, Final residual = 0, No Iterations 0
DILUPBiCGStab:  Solving for CO2, Initial residual = 0.00031714, Final residual = 3.09437e-09, No Iterations 2
DILUPBiCGStab:  Solving for h, Initial residual = 0.000578497, Final residual = 3.02779e-09, No Iterations 2
min/max(T) = 298.519, 1044.97
GAMGPCG:  Solving for p_rgh, Initial residual = 0.0118519, Final residual = 2.92356e-07, No Iterations 4
diagonal:  Solving for rho, Initial residual = 0, Final residual = 0, No Iterations 0
time step continuity errors : sum local = 1.74329e-08, global = -2.55019e-09, cumulative = 6.19524e-06
GAMGPCG:  Solving for p_rgh, Initial residual = 0.00261514, Final residual = 5.83903e-07, No Iterations 3
diagonal:  Solving for rho, Initial residual = 0, Final residual = 0, No Iterations 0
time step continuity errors : sum local = 2.93323e-08, global = 1.14108e-08, cumulative = 6.20665e-06
DILUPBiCGStab:  Solving for omega, Initial residual = 4.83754e-05, Final residual = 3.74847e-09, No Iterations 2
DILUPBiCGStab:  Solving for k, Initial residual = 0.000787545, Final residual = 5.23997e-09, No Iterations 2

ExecutionTime = 270.71 s  ClockTime = 270 s

    Overall     = 0.00132015, 0.01
Time = 2492

diagonal:  Solving for rho, Initial residual = 0, Final residual = 0, No Iterations 0

Execution time for mesh.update() = 0 s

DILUPBiCGStab:  Solving for Ux, Initial residual = 0.00191121, Final residual = 2.32734e-09, No Iterations 3
DILUPBiCGStab:  Solving for Uy, Initial residual = 0.00224178, Final residual = 3.94307e-09, No Iterations 3
DILUPBiCGStab:  Solving for O2, Initial residual = 0.000306303, Final residual = 3.24045e-09, No Iterations 2
DILUPBiCGStab:  Solving for H2O, Initial residual = 0.000307204, Final residual = 3.22549e-09, No Iterations 2
DILUPBiCGStab:  Solving for CH4, Initial residual = 0, Final residual = 0, No Iterations 0
DILUPBiCGStab:  Solving for CO2, Initial residual = 0.000307204, Final residual = 3.22549e-09, No Iterations 2
DILUPBiCGStab:  Solving for h, Initial residual = 0.000556516, Final residual = 3.10192e-09, No Iterations 2
min/max(T) = 298.5, 1044.97
GAMGPCG:  Solving for p_rgh, Initial residual = 0.0126355, Final residual = 2.72482e-07, No Iterations 4
diagonal:  Solving for rho, Initial residual = 0, Final residual = 0, No Iterations 0
time step continuity errors : sum local = 1.56367e-08, global = -9.56755e-09, cumulative = 6.19709e-06
GAMGPCG:  Solving for p_rgh, Initial residual = 0.00258059, Final residual = 2.62934e-07, No Iterations 3
diagonal:  Solving for rho, Initial residual = 0, Final residual = 0, No Iterations 0
time step continuity errors : sum local = 1.24187e-08, global = 2.37919e-09, cumulative = 6.19947e-06
DILUPBiCGStab:  Solving for omega, Initial residual = 4.48461e-05, Final residual = 8.94943e-09, No Iterations 2
DILUPBiCGStab:  Solving for k, Initial residual = 0.000763934, Final residual = 8.91863e-10, No Iterations 3

ExecutionTime = 270.82 s  ClockTime = 270 s

    Overall     = 0.00133365, 0.01
Time = 2493

diagonal:  Solving for rho, Initial residual = 0, Final residual = 0, No Iterations 0

Execution time for mesh.update() = 0 s

DILUPBiCGStab:  Solving for Ux, Initial residual = 0.00182499, Final residual = 2.03668e-09, No Iterations 3
DILUPBiCGStab:  Solving for Uy, Initial residual = 0.0023667, Final residual = 2.55823e-09, No Iterations 3
DILUPBiCGStab:  Solving for O2, Initial residual = 0.000312146, Final residual = 2.98908e-09, No Iterations 2
DILUPBiCGStab:  Solving for H2O, Initial residual = 0.000312359, Final residual = 2.99159e-09, No Iterations 2
DILUPBiCGStab:  Solving for CH4, Initial residual = 0, Final residual = 0, No Iterations 0
DILUPBiCGStab:  Solving for CO2, Initial residual = 0.000312359, Final residual = 2.99159e-09, No Iterations 2
DILUPBiCGStab:  Solving for h, Initial residual = 0.000570795, Final residual = 2.95703e-09, No Iterations 2
min/max(T) = 298.553, 1044.97
GAMGPCG:  Solving for p_rgh, Initial residual = 0.0142902, Final residual = 2.81003e-07, No Iterations 4
diagonal:  Solving for rho, Initial residual = 0, Final residual = 0, No Iterations 0
time step continuity errors : sum local = 1.60328e-08, global = -2.40867e-09, cumulative = 6.19706e-06
GAMGPCG:  Solving for p_rgh, Initial residual = 0.00260332, Final residual = 3.75229e-07, No Iterations 3
diagonal:  Solving for rho, Initial residual = 0, Final residual = 0, No Iterations 0
time step continuity errors : sum local = 1.79004e-08, global = 5.81346e-09, cumulative = 6.20287e-06
DILUPBiCGStab:  Solving for omega, Initial residual = 4.93538e-05, Final residual = 3.4433e-09, No Iterations 2
DILUPBiCGStab:  Solving for k, Initial residual = 0.000774925, Final residual = 4.07216e-09, No Iterations 2

ExecutionTime = 270.93 s  ClockTime = 271 s

    Overall     = 0.00132226, 0.01
Time = 2494

diagonal:  Solving for rho, Initial residual = 0, Final residual = 0, No Iterations 0

Execution time for mesh.update() = 0 s

DILUPBiCGStab:  Solving for Ux, Initial residual = 0.00186419, Final residual = 2.13865e-09, No Iterations 3
DILUPBiCGStab:  Solving for Uy, Initial residual = 0.00226383, Final residual = 2.09647e-09, No Iterations 3
DILUPBiCGStab:  Solving for O2, Initial residual = 0.000300472, Final residual = 2.7016e-09, No Iterations 2
DILUPBiCGStab:  Solving for H2O, Initial residual = 0.000301353, Final residual = 2.69342e-09, No Iterations 2
DILUPBiCGStab:  Solving for CH4, Initial residual = 0, Final residual = 0, No Iterations 0
DILUPBiCGStab:  Solving for CO2, Initial residual = 0.000301353, Final residual = 2.69342e-09, No Iterations 2
DILUPBiCGStab:  Solving for h, Initial residual = 0.000537454, Final residual = 2.84349e-10, No Iterations 3
min/max(T) = 298.53, 1044.97
GAMGPCG:  Solving for p_rgh, Initial residual = 0.0139039, Final residual = 2.25981e-07, No Iterations 4
diagonal:  Solving for rho, Initial residual = 0, Final residual = 0, No Iterations 0
time step continuity errors : sum local = 1.33172e-08, global = -6.76384e-09, cumulative = 6.19611e-06
GAMGPCG:  Solving for p_rgh, Initial residual = 0.00260719, Final residual = 3.35202e-07, No Iterations 3
diagonal:  Solving for rho, Initial residual = 0, Final residual = 0, No Iterations 0
time step continuity errors : sum local = 1.59145e-08, global = -1.57929e-09, cumulative = 6.19453e-06
DILUPBiCGStab:  Solving for omega, Initial residual = 4.43631e-05, Final residual = 4.7495e-09, No Iterations 2
DILUPBiCGStab:  Solving for k, Initial residual = 0.000760525, Final residual = 6.40379e-10, No Iterations 3

ExecutionTime = 271.04 s  ClockTime = 271 s

    Overall     = 0.00133177, 0.01
Time = 2495

diagonal:  Solving for rho, Initial residual = 0, Final residual = 0, No Iterations 0

Execution time for mesh.update() = 0 s

DILUPBiCGStab:  Solving for Ux, Initial residual = 0.00192953, Final residual = 1.64995e-09, No Iterations 3
DILUPBiCGStab:  Solving for Uy, Initial residual = 0.00231584, Final residual = 1.93912e-09, No Iterations 3
DILUPBiCGStab:  Solving for O2, Initial residual = 0.000314715, Final residual = 3.04922e-09, No Iterations 2
DILUPBiCGStab:  Solving for H2O, Initial residual = 0.000314965, Final residual = 3.04942e-09, No Iterations 2
DILUPBiCGStab:  Solving for CH4, Initial residual = 0, Final residual = 0, No Iterations 0
DILUPBiCGStab:  Solving for CO2, Initial residual = 0.000314965, Final residual = 3.04942e-09, No Iterations 2
DILUPBiCGStab:  Solving for h, Initial residual = 0.000565461, Final residual = 2.66012e-09, No Iterations 2
min/max(T) = 298.559, 1044.97
GAMGPCG:  Solving for p_rgh, Initial residual = 0.0136619, Final residual = 2.12208e-07, No Iterations 4
diagonal:  Solving for rho, Initial residual = 0, Final residual = 0, No Iterations 0
time step continuity errors : sum local = 1.24315e-08, global = 4.15409e-09, cumulative = 6.19868e-06
GAMGPCG:  Solving for p_rgh, Initial residual = 0.00255486, Final residual = 7.24956e-07, No Iterations 3
diagonal:  Solving for rho, Initial residual = 0, Final residual = 0, No Iterations 0
time step continuity errors : sum local = 3.39138e-08, global = -1.12607e-08, cumulative = 6.18742e-06
DILUPBiCGStab:  Solving for omega, Initial residual = 4.8711e-05, Final residual = 4.69773e-09, No Iterations 2
DILUPBiCGStab:  Solving for k, Initial residual = 0.000757913, Final residual = 4.31878e-09, No Iterations 2

ExecutionTime = 271.14 s  ClockTime = 271 s

    Overall     = 0.00132462, 0.01
Time = 2496

diagonal:  Solving for rho, Initial residual = 0, Final residual = 0, No Iterations 0

Execution time for mesh.update() = 0 s

DILUPBiCGStab:  Solving for Ux, Initial residual = 0.00181685, Final residual = 5.28626e-09, No Iterations 3
DILUPBiCGStab:  Solving for Uy, Initial residual = 0.00224038, Final residual = 2.2209e-09, No Iterations 3
DILUPBiCGStab:  Solving for O2, Initial residual = 0.00029978, Final residual = 2.58287e-09, No Iterations 2
DILUPBiCGStab:  Solving for H2O, Initial residual = 0.000300627, Final residual = 2.58234e-09, No Iterations 2
DILUPBiCGStab:  Solving for CH4, Initial residual = 0, Final residual = 0, No Iterations 0
DILUPBiCGStab:  Solving for CO2, Initial residual = 0.000300627, Final residual = 2.58234e-09, No Iterations 2
DILUPBiCGStab:  Solving for h, Initial residual = 0.000536439, Final residual = 2.46762e-09, No Iterations 2
min/max(T) = 298.546, 1044.97
GAMGPCG:  Solving for p_rgh, Initial residual = 0.0135201, Final residual = 3.76367e-07, No Iterations 4
diagonal:  Solving for rho, Initial residual = 0, Final residual = 0, No Iterations 0
time step continuity errors : sum local = 2.15618e-08, global = 3.96872e-09, cumulative = 6.19139e-06
GAMGPCG:  Solving for p_rgh, Initial residual = 0.00256437, Final residual = 2.59706e-07, No Iterations 3
diagonal:  Solving for rho, Initial residual = 0, Final residual = 0, No Iterations 0
time step continuity errors : sum local = 1.35432e-08, global = -4.82375e-09, cumulative = 6.18657e-06
DILUPBiCGStab:  Solving for omega, Initial residual = 4.17987e-05, Final residual = 6.01717e-09, No Iterations 2
DILUPBiCGStab:  Solving for k, Initial residual = 0.000742055, Final residual = 7.70629e-10, No Iterations 3

ExecutionTime = 271.25 s  ClockTime = 271 s

    Overall     = 0.00133098, 0.01
Time = 2497

diagonal:  Solving for rho, Initial residual = 0, Final residual = 0, No Iterations 0

Execution time for mesh.update() = 0 s

DILUPBiCGStab:  Solving for Ux, Initial residual = 0.00187775, Final residual = 1.77498e-09, No Iterations 3
DILUPBiCGStab:  Solving for Uy, Initial residual = 0.00219429, Final residual = 2.51269e-09, No Iterations 3
DILUPBiCGStab:  Solving for O2, Initial residual = 0.000295925, Final residual = 2.96718e-09, No Iterations 2
DILUPBiCGStab:  Solving for H2O, Initial residual = 0.000296198, Final residual = 2.96434e-09, No Iterations 2
DILUPBiCGStab:  Solving for CH4, Initial residual = 0, Final residual = 0, No Iterations 0
DILUPBiCGStab:  Solving for CO2, Initial residual = 0.000296198, Final residual = 2.96434e-09, No Iterations 2
DILUPBiCGStab:  Solving for h, Initial residual = 0.000530715, Final residual = 2.4384e-09, No Iterations 2
min/max(T) = 298.56, 1044.97
GAMGPCG:  Solving for p_rgh, Initial residual = 0.0120826, Final residual = 1.81779e-07, No Iterations 4
diagonal:  Solving for rho, Initial residual = 0, Final residual = 0, No Iterations 0
time step continuity errors : sum local = 1.03789e-08, global = 3.74299e-09, cumulative = 6.19031e-06
GAMGPCG:  Solving for p_rgh, Initial residual = 0.00257861, Final residual = 3.23449e-07, No Iterations 3
diagonal:  Solving for rho, Initial residual = 0, Final residual = 0, No Iterations 0
time step continuity errors : sum local = 1.73556e-08, global = -7.24942e-09, cumulative = 6.18306e-06
DILUPBiCGStab:  Solving for omega, Initial residual = 3.95075e-05, Final residual = 1.0852e-09, No Iterations 2
DILUPBiCGStab:  Solving for k, Initial residual = 0.000736987, Final residual = 5.2625e-09, No Iterations 2

ExecutionTime = 271.36 s  ClockTime = 271 s

    Overall     = 0.00132711, 0.01
Time = 2498

diagonal:  Solving for rho, Initial residual = 0, Final residual = 0, No Iterations 0

Execution time for mesh.update() = 0 s

DILUPBiCGStab:  Solving for Ux, Initial residual = 0.00168501, Final residual = 3.27739e-09, No Iterations 3
DILUPBiCGStab:  Solving for Uy, Initial residual = 0.00211182, Final residual = 2.47098e-09, No Iterations 3
DILUPBiCGStab:  Solving for O2, Initial residual = 0.000307885, Final residual = 2.88085e-09, No Iterations 2
DILUPBiCGStab:  Solving for H2O, Initial residual = 0.000308762, Final residual = 2.88152e-09, No Iterations 2
DILUPBiCGStab:  Solving for CH4, Initial residual = 0, Final residual = 0, No Iterations 0
DILUPBiCGStab:  Solving for CO2, Initial residual = 0.000308762, Final residual = 2.88152e-09, No Iterations 2
DILUPBiCGStab:  Solving for h, Initial residual = 0.000570048, Final residual = 2.60257e-09, No Iterations 2
min/max(T) = 298.553, 1044.97
GAMGPCG:  Solving for p_rgh, Initial residual = 0.0119606, Final residual = 3.31633e-07, No Iterations 4
diagonal:  Solving for rho, Initial residual = 0, Final residual = 0, No Iterations 0
time step continuity errors : sum local = 1.91312e-08, global = 4.68908e-09, cumulative = 6.18775e-06
GAMGPCG:  Solving for p_rgh, Initial residual = 0.0024279, Final residual = 2.3779e-07, No Iterations 3
diagonal:  Solving for rho, Initial residual = 0, Final residual = 0, No Iterations 0
time step continuity errors : sum local = 1.17203e-08, global = 5.37523e-10, cumulative = 6.18829e-06
DILUPBiCGStab:  Solving for omega, Initial residual = 4.39069e-05, Final residual = 3.63042e-09, No Iterations 2
DILUPBiCGStab:  Solving for k, Initial residual = 0.000712171, Final residual = 4.66161e-09, No Iterations 2

ExecutionTime = 271.47 s  ClockTime = 271 s

    Overall     = 0.0013321, 0.01
Time = 2499

diagonal:  Solving for rho, Initial residual = 0, Final residual = 0, No Iterations 0

Execution time for mesh.update() = 0 s

DILUPBiCGStab:  Solving for Ux, Initial residual = 0.00173, Final residual = 1.46977e-09, No Iterations 3
DILUPBiCGStab:  Solving for Uy, Initial residual = 0.00207461, Final residual = 3.02425e-09, No Iterations 3
DILUPBiCGStab:  Solving for O2, Initial residual = 0.000274435, Final residual = 2.6005e-09, No Iterations 2
DILUPBiCGStab:  Solving for H2O, Initial residual = 0.000274713, Final residual = 2.59933e-09, No Iterations 2
DILUPBiCGStab:  Solving for CH4, Initial residual = 0, Final residual = 0, No Iterations 0
DILUPBiCGStab:  Solving for CO2, Initial residual = 0.000274713, Final residual = 2.59933e-09, No Iterations 2
DILUPBiCGStab:  Solving for h, Initial residual = 0.000481338, Final residual = 2.44829e-09, No Iterations 2
min/max(T) = 298.563, 1044.97
GAMGPCG:  Solving for p_rgh, Initial residual = 0.0124777, Final residual = 1.62638e-07, No Iterations 4
diagonal:  Solving for rho, Initial residual = 0, Final residual = 0, No Iterations 0
time step continuity errors : sum local = 8.84366e-09, global = -3.76237e-10, cumulative = 6.18791e-06
GAMGPCG:  Solving for p_rgh, Initial residual = 0.00258064, Final residual = 5.38362e-07, No Iterations 3
diagonal:  Solving for rho, Initial residual = 0, Final residual = 0, No Iterations 0
time step continuity errors : sum local = 2.72483e-08, global = 1.13507e-08, cumulative = 6.19926e-06
DILUPBiCGStab:  Solving for omega, Initial residual = 3.92749e-05, Final residual = 5.072e-09, No Iterations 2
DILUPBiCGStab:  Solving for k, Initial residual = 0.000705602, Final residual = 7.14847e-09, No Iterations 2

ExecutionTime = 271.57 s  ClockTime = 271 s

    Overall     = 0.00132757, 0.01
Time = 2500

diagonal:  Solving for rho, Initial residual = 0, Final residual = 0, No Iterations 0

Execution time for mesh.update() = 0 s

DILUPBiCGStab:  Solving for Ux, Initial residual = 0.00168917, Final residual = 1.3778e-09, No Iterations 3
DILUPBiCGStab:  Solving for Uy, Initial residual = 0.00208161, Final residual = 2.15272e-09, No Iterations 3
GAMGPCG:  Solving for G, Initial residual = 0.0217417, Final residual = 4.18664e-05, No Iterations 4
DILUPBiCGStab:  Solving for O2, Initial residual = 0.000275678, Final residual = 2.525e-09, No Iterations 2
DILUPBiCGStab:  Solving for H2O, Initial residual = 0.000276557, Final residual = 2.52496e-09, No Iterations 2
DILUPBiCGStab:  Solving for CH4, Initial residual = 0, Final residual = 0, No Iterations 0
DILUPBiCGStab:  Solving for CO2, Initial residual = 0.000276557, Final residual = 2.52496e-09, No Iterations 2
DILUPBiCGStab:  Solving for h, Initial residual = 0.000503506, Final residual = 2.40447e-09, No Iterations 2
min/max(T) = 298.552, 1044.97
GAMGPCG:  Solving for p_rgh, Initial residual = 0.0112955, Final residual = 2.23202e-07, No Iterations 4
diagonal:  Solving for rho, Initial residual = 0, Final residual = 0, No Iterations 0
time step continuity errors : sum local = 1.22534e-08, global = -6.18881e-09, cumulative = 6.19307e-06
GAMGPCG:  Solving for p_rgh, Initial residual = 0.00240575, Final residual = 2.70596e-07, No Iterations 3
diagonal:  Solving for rho, Initial residual = 0, Final residual = 0, No Iterations 0
time step continuity errors : sum local = 1.36073e-08, global = 2.37911e-09, cumulative = 6.19545e-06
DILUPBiCGStab:  Solving for omega, Initial residual = 4.71072e-05, Final residual = 3.19773e-09, No Iterations 2
DILUPBiCGStab:  Solving for k, Initial residual = 0.000700684, Final residual = 4.51402e-09, No Iterations 2

ExecutionTime = 271.81 s  ClockTime = 271 s


Patch Mean : 313.128
Patch Variance : 198.74
Patch Gradient : 1.33142
End
