/*---------------------------------------------------------------------------*\
  =========                 |
  \\      /  F ield         | OpenFOAM: The Open Source CFD Toolbox
   \\    /   O peration     | Website:  https://openfoam.org
    \\  /    A nd           | Version:  dev
     \\/     M anipulation  |
\*---------------------------------------------------------------------------*/
Build  : dev-cabe48fb62c1
Exec   : fireDyMFoam
Date   : Apr 15 2019
Time   : 12:26:29
Host   : "Host"
PID    : 32752
I/O    : uncollated
Case   : /home/tesla/OpenFOAM/tesla-dev/run/rollerOpt_COBYLA_NEW
nProcs : 1
sigFpe : Enabling floating point exception trapping (FOAM_SIGFPE).
fileModificationChecking : Monitoring run-time modified files using timeStampMaster (fileModificationSkew 10)
allowSystemOperations : Allowing user-supplied system call operations

// * * * * * * * * * * * * * * * * * * * * * * * * * * * * * * * * * * * * * //
Create time

--> FOAM Warning : 
    From function void* Foam::dlOpen(const Foam::fileName&, bool)
    in file POSIX.C at line 1268
    dlopen error : libgroovyBC.so: cannot open shared object file: No such file or directory
--> FOAM Warning : 
    From function bool Foam::dlLibraryTable::open(const Foam::fileName&, bool)
    in file db/dynamicLibrary/dlLibraryTable/dlLibraryTable.C at line 105
    could not load "libgroovyBC.so"
Create mesh for time = 250

Selecting dynamicFvMesh dynamicRefineFvMesh
Detected 538 cells that are protected from refinement. Writing these to cellSet protectedCells.

PIMPLE: No convergence criteria found


PIMPLE: Operating solver in PISO mode


Initializing Solver

Selecting thermodynamics package 
{
    type            hePsiThermo;
    mixture         reactingMixture;
    transport       sutherland;
    thermo          janaf;
    energy          sensibleEnthalpy;
    equationOfState perfectGas;
    specie          specie;
}

Selecting chemistryReader foamChemistryReader
    elements not defined in "/home/tesla/OpenFOAM/tesla-dev/run/rollerOpt_COBYLA_NEW/constant/reactions"
Reading/calculating face flux field phi

No MRF models present

Selecting turbulence model type RAS
Selecting RAS turbulence model kOmegaSST
Selecting patchDistMethod meshWave
kOmegaSSTCoeffs
{
    delta           cubeRootVol;
    cubeRootVolCoeffs
    {
        deltaCoeff      1;
    }
    alphaK1         0.85;
    alphaK2         1;
    alphaOmega1     0.5;
    alphaOmega2     0.856;
    gamma1          0.555556;
    gamma2          0.44;
    beta1           0.075;
    beta2           0.0828;
    betaStar        0.09;
    a1              0.31;
    b1              1;
    c1              10;
    F3              false;
}

Selecting combustion model none<psiThermoCombustion>
--> FOAM Warning : 
    From function static Foam::autoPtr<T> Foam::combustionModel::New(typename CombustionModel::reactionThermo&, const Foam::compressibleTurbulenceModel&, const Foam::word&) [with CombustionModel = Foam::CombustionModel<Foam::psiReactionThermo>; typename CombustionModel::reactionThermo = Foam::psiReactionThermo]
    in file /home/tesla/OpenFOAM/OpenFOAM-dev/src/combustionModels/lnInclude/combustionModelTemplates.C at line 69
    Template parameters are no longer required when selecting a combustionModel. This information is now obtained directly from the thermodynamics. Actually selecting combustion model none.

Reading g

Reading hRef
Calculating field g.h


Reading pRef
Selecting radiationModel P1
Selecting absorptionEmissionModel greyMeanAbsorptionEmission
Selecting scatterModel none
Selecting sootModel none
Creating finite volume options from "system/fvOptions"

No finite volume options present
Using LTS

Starting time loop

Using dynamicCode for functionObject patchCalcs at line 64 in "/home/tesla/OpenFOAM/tesla-dev/run/rollerOpt_COBYLA_NEW/system/controlDict.functions.patchCalcs"
    Overall     = 0.00133901, 0.01
Time = 251

diagonal:  Solving for rho, Initial residual = 0, Final residual = 0, No Iterations 0

Execution time for mesh.update() = 0.01 s

DILUPBiCGStab:  Solving for Ux, Initial residual = 0.00467252, Final residual = 6.55176e-09, No Iterations 3
DILUPBiCGStab:  Solving for Uy, Initial residual = 0.00842891, Final residual = 1.11106e-09, No Iterations 3
GAMGPCG:  Solving for G, Initial residual = 0.0318201, Final residual = 4.33902e-05, No Iterations 4
DILUPBiCGStab:  Solving for O2, Initial residual = 0.0031439, Final residual = 3.76483e-09, No Iterations 3
DILUPBiCGStab:  Solving for H2O, Initial residual = 0.00314407, Final residual = 3.76438e-09, No Iterations 3
DILUPBiCGStab:  Solving for CH4, Initial residual = 0, Final residual = 0, No Iterations 0
DILUPBiCGStab:  Solving for CO2, Initial residual = 0.00314407, Final residual = 3.76439e-09, No Iterations 3
DILUPBiCGStab:  Solving for h, Initial residual = 0.00349415, Final residual = 3.49096e-09, No Iterations 3
min/max(T) = 299.336, 1044.97
GAMGPCG:  Solving for p_rgh, Initial residual = 0.0217571, Final residual = 1.39774e-07, No Iterations 5
diagonal:  Solving for rho, Initial residual = 0, Final residual = 0, No Iterations 0
time step continuity errors : sum local = 2.46016e-06, global = -1.37204e-07, cumulative = -1.37204e-07
GAMGPCG:  Solving for p_rgh, Initial residual = 0.00309346, Final residual = 4.60545e-07, No Iterations 4
diagonal:  Solving for rho, Initial residual = 0, Final residual = 0, No Iterations 0
time step continuity errors : sum local = 2.46097e-06, global = -1.33866e-07, cumulative = -2.7107e-07
DILUPBiCGStab:  Solving for omega, Initial residual = 0.000119344, Final residual = 1.92011e-09, No Iterations 2
DILUPBiCGStab:  Solving for k, Initial residual = 0.00501013, Final residual = 2.29092e-09, No Iterations 3

ExecutionTime = 0.38 s  ClockTime = 1 s

    Overall     = 0.00133146, 0.01
Time = 252

diagonal:  Solving for rho, Initial residual = 0, Final residual = 0, No Iterations 0

Execution time for mesh.update() = 0 s

DILUPBiCGStab:  Solving for Ux, Initial residual = 0.00469642, Final residual = 7.16209e-09, No Iterations 3
DILUPBiCGStab:  Solving for Uy, Initial residual = 0.00847963, Final residual = 1.37974e-09, No Iterations 3
DILUPBiCGStab:  Solving for O2, Initial residual = 0.00313888, Final residual = 3.55775e-09, No Iterations 3
DILUPBiCGStab:  Solving for H2O, Initial residual = 0.00313939, Final residual = 3.55732e-09, No Iterations 3
DILUPBiCGStab:  Solving for CH4, Initial residual = 0, Final residual = 0, No Iterations 0
DILUPBiCGStab:  Solving for CO2, Initial residual = 0.00313939, Final residual = 3.55732e-09, No Iterations 3
DILUPBiCGStab:  Solving for h, Initial residual = 0.00348751, Final residual = 3.41267e-09, No Iterations 3
min/max(T) = 299.33, 1044.97
GAMGPCG:  Solving for p_rgh, Initial residual = 0.0212206, Final residual = 1.54932e-07, No Iterations 5
diagonal:  Solving for rho, Initial residual = 0, Final residual = 0, No Iterations 0
time step continuity errors : sum local = 6.89422e-09, global = -7.21876e-10, cumulative = -2.71792e-07
GAMGPCG:  Solving for p_rgh, Initial residual = 0.00308068, Final residual = 4.81268e-07, No Iterations 4
diagonal:  Solving for rho, Initial residual = 0, Final residual = 0, No Iterations 0
time step continuity errors : sum local = 1.94673e-08, global = 2.96375e-09, cumulative = -2.68828e-07
DILUPBiCGStab:  Solving for omega, Initial residual = 0.000121681, Final residual = 2.0035e-09, No Iterations 2
DILUPBiCGStab:  Solving for k, Initial residual = 0.00499365, Final residual = 2.07867e-09, No Iterations 3

ExecutionTime = 0.5 s  ClockTime = 1 s

    Overall     = 0.0013345, 0.01
Time = 253

diagonal:  Solving for rho, Initial residual = 0, Final residual = 0, No Iterations 0

Execution time for mesh.update() = 0 s

DILUPBiCGStab:  Solving for Ux, Initial residual = 0.00468734, Final residual = 7.75481e-09, No Iterations 3
DILUPBiCGStab:  Solving for Uy, Initial residual = 0.008463, Final residual = 1.32444e-09, No Iterations 3
DILUPBiCGStab:  Solving for O2, Initial residual = 0.00313118, Final residual = 3.82188e-09, No Iterations 3
DILUPBiCGStab:  Solving for H2O, Initial residual = 0.00313138, Final residual = 3.82195e-09, No Iterations 3
DILUPBiCGStab:  Solving for CH4, Initial residual = 0, Final residual = 0, No Iterations 0
DILUPBiCGStab:  Solving for CO2, Initial residual = 0.00313138, Final residual = 3.82194e-09, No Iterations 3
DILUPBiCGStab:  Solving for h, Initial residual = 0.00347936, Final residual = 3.7861e-09, No Iterations 3
min/max(T) = 299.349, 1044.97
GAMGPCG:  Solving for p_rgh, Initial residual = 0.0214667, Final residual = 1.91941e-07, No Iterations 5
diagonal:  Solving for rho, Initial residual = 0, Final residual = 0, No Iterations 0
time step continuity errors : sum local = 8.52917e-09, global = -2.91935e-10, cumulative = -2.6912e-07
GAMGPCG:  Solving for p_rgh, Initial residual = 0.00300203, Final residual = 4.64345e-07, No Iterations 4
diagonal:  Solving for rho, Initial residual = 0, Final residual = 0, No Iterations 0
time step continuity errors : sum local = 1.89767e-08, global = 2.91531e-09, cumulative = -2.66205e-07
DILUPBiCGStab:  Solving for omega, Initial residual = 0.000121184, Final residual = 2.05033e-09, No Iterations 2
bounding omega, min: -8.43313 max: 15659.2 average: 295.783
DILUPBiCGStab:  Solving for k, Initial residual = 0.00497098, Final residual = 2.03641e-09, No Iterations 3

ExecutionTime = 0.62 s  ClockTime = 1 s

    Overall     = 0.00132725, 0.01
Time = 254

diagonal:  Solving for rho, Initial residual = 0, Final residual = 0, No Iterations 0

Execution time for mesh.update() = 0 s

DILUPBiCGStab:  Solving for Ux, Initial residual = 0.00469262, Final residual = 8.51466e-09, No Iterations 3
DILUPBiCGStab:  Solving for Uy, Initial residual = 0.00843306, Final residual = 1.42475e-09, No Iterations 3
DILUPBiCGStab:  Solving for O2, Initial residual = 0.00312045, Final residual = 3.39253e-09, No Iterations 3
DILUPBiCGStab:  Solving for H2O, Initial residual = 0.00312111, Final residual = 3.39244e-09, No Iterations 3
DILUPBiCGStab:  Solving for CH4, Initial residual = 0, Final residual = 0, No Iterations 0
DILUPBiCGStab:  Solving for CO2, Initial residual = 0.00312111, Final residual = 3.39243e-09, No Iterations 3
DILUPBiCGStab:  Solving for h, Initial residual = 0.00346488, Final residual = 3.07318e-09, No Iterations 3
min/max(T) = 299.343, 1044.97
GAMGPCG:  Solving for p_rgh, Initial residual = 0.021109, Final residual = 1.44966e-07, No Iterations 5
diagonal:  Solving for rho, Initial residual = 0, Final residual = 0, No Iterations 0
time step continuity errors : sum local = 6.46061e-09, global = -5.82131e-10, cumulative = -2.66787e-07
GAMGPCG:  Solving for p_rgh, Initial residual = 0.00306388, Final residual = 4.85597e-07, No Iterations 4
diagonal:  Solving for rho, Initial residual = 0, Final residual = 0, No Iterations 0
time step continuity errors : sum local = 1.97241e-08, global = 3.22248e-09, cumulative = -2.63564e-07
DILUPBiCGStab:  Solving for omega, Initial residual = 0.000118931, Final residual = 2.05768e-09, No Iterations 2
bounding omega, min: -0.0403956 max: 15658.7 average: 295.757
DILUPBiCGStab:  Solving for k, Initial residual = 0.0049472, Final residual = 1.88823e-09, No Iterations 3

ExecutionTime = 0.74 s  ClockTime = 1 s

    Overall     = 0.00133002, 0.01
Time = 255

diagonal:  Solving for rho, Initial residual = 0, Final residual = 0, No Iterations 0

Execution time for mesh.update() = 0 s

DILUPBiCGStab:  Solving for Ux, Initial residual = 0.00468168, Final residual = 8.29228e-09, No Iterations 3
DILUPBiCGStab:  Solving for Uy, Initial residual = 0.0084134, Final residual = 1.33317e-09, No Iterations 3
DILUPBiCGStab:  Solving for O2, Initial residual = 0.00310934, Final residual = 3.28425e-09, No Iterations 3
DILUPBiCGStab:  Solving for H2O, Initial residual = 0.0031096, Final residual = 3.28439e-09, No Iterations 3
DILUPBiCGStab:  Solving for CH4, Initial residual = 0, Final residual = 0, No Iterations 0
DILUPBiCGStab:  Solving for CO2, Initial residual = 0.0031096, Final residual = 3.28439e-09, No Iterations 3
DILUPBiCGStab:  Solving for h, Initial residual = 0.00345245, Final residual = 2.72441e-09, No Iterations 3
min/max(T) = 299.358, 1044.97
GAMGPCG:  Solving for p_rgh, Initial residual = 0.0210818, Final residual = 1.52272e-07, No Iterations 5
diagonal:  Solving for rho, Initial residual = 0, Final residual = 0, No Iterations 0
time step continuity errors : sum local = 6.81822e-09, global = -4.83276e-10, cumulative = -2.64047e-07
GAMGPCG:  Solving for p_rgh, Initial residual = 0.00294514, Final residual = 4.74254e-07, No Iterations 4
diagonal:  Solving for rho, Initial residual = 0, Final residual = 0, No Iterations 0
time step continuity errors : sum local = 1.93104e-08, global = 3.10295e-09, cumulative = -2.60945e-07
DILUPBiCGStab:  Solving for omega, Initial residual = 0.00011918, Final residual = 2.03593e-09, No Iterations 2
DILUPBiCGStab:  Solving for k, Initial residual = 0.00492902, Final residual = 1.84316e-09, No Iterations 3

ExecutionTime = 0.86 s  ClockTime = 1 s

    Overall     = 0.0013226, 0.01
Time = 256

diagonal:  Solving for rho, Initial residual = 0, Final residual = 0, No Iterations 0

Execution time for mesh.update() = 0 s

DILUPBiCGStab:  Solving for Ux, Initial residual = 0.00470346, Final residual = 8.97189e-09, No Iterations 3
DILUPBiCGStab:  Solving for Uy, Initial residual = 0.00845263, Final residual = 1.37453e-09, No Iterations 3
DILUPBiCGStab:  Solving for O2, Initial residual = 0.00310766, Final residual = 3.06773e-09, No Iterations 3
DILUPBiCGStab:  Solving for H2O, Initial residual = 0.00310815, Final residual = 3.06764e-09, No Iterations 3
DILUPBiCGStab:  Solving for CH4, Initial residual = 0, Final residual = 0, No Iterations 0
DILUPBiCGStab:  Solving for CO2, Initial residual = 0.00310815, Final residual = 3.06764e-09, No Iterations 3
DILUPBiCGStab:  Solving for h, Initial residual = 0.00345127, Final residual = 2.55752e-09, No Iterations 3
min/max(T) = 299.354, 1044.97
GAMGPCG:  Solving for p_rgh, Initial residual = 0.0210487, Final residual = 1.28483e-07, No Iterations 5
diagonal:  Solving for rho, Initial residual = 0, Final residual = 0, No Iterations 0
time step continuity errors : sum local = 5.65112e-09, global = -5.40727e-10, cumulative = -2.61485e-07
GAMGPCG:  Solving for p_rgh, Initial residual = 0.0030157, Final residual = 4.84407e-07, No Iterations 4
diagonal:  Solving for rho, Initial residual = 0, Final residual = 0, No Iterations 0
time step continuity errors : sum local = 1.96167e-08, global = 3.37851e-09, cumulative = -2.58107e-07
DILUPBiCGStab:  Solving for omega, Initial residual = 0.000120508, Final residual = 2.20942e-09, No Iterations 2
bounding omega, min: -1.76067 max: 15658.7 average: 295.707
DILUPBiCGStab:  Solving for k, Initial residual = 0.00491184, Final residual = 2.03759e-09, No Iterations 3

ExecutionTime = 0.98 s  ClockTime = 1 s

    Overall     = 0.00132592, 0.01
Time = 257

diagonal:  Solving for rho, Initial residual = 0, Final residual = 0, No Iterations 0

Execution time for mesh.update() = 0 s

DILUPBiCGStab:  Solving for Ux, Initial residual = 0.00469779, Final residual = 8.69636e-09, No Iterations 3
DILUPBiCGStab:  Solving for Uy, Initial residual = 0.00841855, Final residual = 1.29087e-09, No Iterations 3
DILUPBiCGStab:  Solving for O2, Initial residual = 0.00310103, Final residual = 3.08958e-09, No Iterations 3
DILUPBiCGStab:  Solving for H2O, Initial residual = 0.00310122, Final residual = 3.08961e-09, No Iterations 3
DILUPBiCGStab:  Solving for CH4, Initial residual = 0, Final residual = 0, No Iterations 0
DILUPBiCGStab:  Solving for CO2, Initial residual = 0.00310122, Final residual = 3.08961e-09, No Iterations 3
DILUPBiCGStab:  Solving for h, Initial residual = 0.00344253, Final residual = 2.47048e-09, No Iterations 3
min/max(T) = 299.375, 1044.97
GAMGPCG:  Solving for p_rgh, Initial residual = 0.021308, Final residual = 2.9278e-07, No Iterations 5
diagonal:  Solving for rho, Initial residual = 0, Final residual = 0, No Iterations 0
time step continuity errors : sum local = 1.24986e-08, global = 1.03884e-10, cumulative = -2.58003e-07
GAMGPCG:  Solving for p_rgh, Initial residual = 0.00296021, Final residual = 4.73278e-07, No Iterations 4
diagonal:  Solving for rho, Initial residual = 0, Final residual = 0, No Iterations 0
time step continuity errors : sum local = 1.92072e-08, global = 3.33633e-09, cumulative = -2.54667e-07
DILUPBiCGStab:  Solving for omega, Initial residual = 0.000121019, Final residual = 2.13972e-09, No Iterations 2
bounding omega, min: -1.23564 max: 15659.2 average: 295.67
DILUPBiCGStab:  Solving for k, Initial residual = 0.00494471, Final residual = 2.16247e-09, No Iterations 3

ExecutionTime = 1.09 s  ClockTime = 1 s

    Overall     = 0.00131874, 0.01
Time = 258

diagonal:  Solving for rho, Initial residual = 0, Final residual = 0, No Iterations 0

Execution time for mesh.update() = 0 s

DILUPBiCGStab:  Solving for Ux, Initial residual = 0.00472539, Final residual = 8.67055e-09, No Iterations 3
DILUPBiCGStab:  Solving for Uy, Initial residual = 0.00843385, Final residual = 1.20651e-09, No Iterations 3
DILUPBiCGStab:  Solving for O2, Initial residual = 0.00308877, Final residual = 2.90963e-09, No Iterations 3
DILUPBiCGStab:  Solving for H2O, Initial residual = 0.00308942, Final residual = 2.90951e-09, No Iterations 3
DILUPBiCGStab:  Solving for CH4, Initial residual = 0, Final residual = 0, No Iterations 0
DILUPBiCGStab:  Solving for CO2, Initial residual = 0.00308942, Final residual = 2.90951e-09, No Iterations 3
DILUPBiCGStab:  Solving for h, Initial residual = 0.00342686, Final residual = 2.48094e-09, No Iterations 3
min/max(T) = 299.37, 1044.97
GAMGPCG:  Solving for p_rgh, Initial residual = 0.0211235, Final residual = 2.75542e-07, No Iterations 5
diagonal:  Solving for rho, Initial residual = 0, Final residual = 0, No Iterations 0
time step continuity errors : sum local = 1.17576e-08, global = 3.08791e-10, cumulative = -2.54358e-07
GAMGPCG:  Solving for p_rgh, Initial residual = 0.00305524, Final residual = 4.91219e-07, No Iterations 4
diagonal:  Solving for rho, Initial residual = 0, Final residual = 0, No Iterations 0
time step continuity errors : sum local = 1.9866e-08, global = 3.58366e-09, cumulative = -2.50774e-07
DILUPBiCGStab:  Solving for omega, Initial residual = 0.000117775, Final residual = 2.10145e-09, No Iterations 2
DILUPBiCGStab:  Solving for k, Initial residual = 0.00493052, Final residual = 2.60695e-09, No Iterations 3

ExecutionTime = 1.21 s  ClockTime = 1 s

    Overall     = 0.00132192, 0.01
Time = 259

diagonal:  Solving for rho, Initial residual = 0, Final residual = 0, No Iterations 0

Execution time for mesh.update() = 0 s

DILUPBiCGStab:  Solving for Ux, Initial residual = 0.00474624, Final residual = 7.76537e-09, No Iterations 3
DILUPBiCGStab:  Solving for Uy, Initial residual = 0.00843673, Final residual = 1.30628e-09, No Iterations 3
DILUPBiCGStab:  Solving for O2, Initial residual = 0.00307416, Final residual = 3.12431e-09, No Iterations 3
DILUPBiCGStab:  Solving for H2O, Initial residual = 0.00307422, Final residual = 3.12459e-09, No Iterations 3
DILUPBiCGStab:  Solving for CH4, Initial residual = 0, Final residual = 0, No Iterations 0
DILUPBiCGStab:  Solving for CO2, Initial residual = 0.00307422, Final residual = 3.12459e-09, No Iterations 3
DILUPBiCGStab:  Solving for h, Initial residual = 0.00341025, Final residual = 2.63549e-09, No Iterations 3
min/max(T) = 299.391, 1044.97
GAMGPCG:  Solving for p_rgh, Initial residual = 0.0208606, Final residual = 1.54454e-07, No Iterations 5
diagonal:  Solving for rho, Initial residual = 0, Final residual = 0, No Iterations 0
time step continuity errors : sum local = 6.76163e-09, global = -4.19764e-10, cumulative = -2.51194e-07
GAMGPCG:  Solving for p_rgh, Initial residual = 0.00295453, Final residual = 4.90308e-07, No Iterations 4
diagonal:  Solving for rho, Initial residual = 0, Final residual = 0, No Iterations 0
time step continuity errors : sum local = 1.98542e-08, global = 3.51817e-09, cumulative = -2.47676e-07
DILUPBiCGStab:  Solving for omega, Initial residual = 0.000118595, Final residual = 1.96286e-09, No Iterations 2
DILUPBiCGStab:  Solving for k, Initial residual = 0.00491433, Final residual = 2.45269e-09, No Iterations 3

ExecutionTime = 1.33 s  ClockTime = 1 s

    Overall     = 0.00131489, 0.01
Time = 260

diagonal:  Solving for rho, Initial residual = 0, Final residual = 0, No Iterations 0

Execution time for mesh.update() = 0 s

DILUPBiCGStab:  Solving for Ux, Initial residual = 0.00475183, Final residual = 7.59705e-09, No Iterations 3
DILUPBiCGStab:  Solving for Uy, Initial residual = 0.00845417, Final residual = 1.33529e-09, No Iterations 3
GAMGPCG:  Solving for G, Initial residual = 0.123081, Final residual = 9.69943e-05, No Iterations 5
DILUPBiCGStab:  Solving for O2, Initial residual = 0.00306076, Final residual = 3.1985e-09, No Iterations 3
DILUPBiCGStab:  Solving for H2O, Initial residual = 0.00306143, Final residual = 3.19789e-09, No Iterations 3
DILUPBiCGStab:  Solving for CH4, Initial residual = 0, Final residual = 0, No Iterations 0
DILUPBiCGStab:  Solving for CO2, Initial residual = 0.00306143, Final residual = 3.1979e-09, No Iterations 3
DILUPBiCGStab:  Solving for h, Initial residual = 0.00339423, Final residual = 2.67894e-09, No Iterations 3
min/max(T) = 299.394, 1044.97
GAMGPCG:  Solving for p_rgh, Initial residual = 0.0209565, Final residual = 2.97051e-07, No Iterations 5
diagonal:  Solving for rho, Initial residual = 0, Final residual = 0, No Iterations 0
time step continuity errors : sum local = 1.25352e-08, global = 4.09226e-10, cumulative = -2.47266e-07
GAMGPCG:  Solving for p_rgh, Initial residual = 0.00306036, Final residual = 5.11538e-07, No Iterations 4
diagonal:  Solving for rho, Initial residual = 0, Final residual = 0, No Iterations 0
time step continuity errors : sum local = 2.05845e-08, global = 3.71678e-09, cumulative = -2.4355e-07
DILUPBiCGStab:  Solving for omega, Initial residual = 0.000117141, Final residual = 1.87396e-09, No Iterations 2
DILUPBiCGStab:  Solving for k, Initial residual = 0.00489504, Final residual = 2.65165e-09, No Iterations 3

ExecutionTime = 1.58 s  ClockTime = 2 s

    Overall     = 0.0013181, 0.01
Time = 261

diagonal:  Solving for rho, Initial residual = 0, Final residual = 0, No Iterations 0

Execution time for mesh.update() = 0 s

DILUPBiCGStab:  Solving for Ux, Initial residual = 0.00474235, Final residual = 7.10893e-09, No Iterations 3
DILUPBiCGStab:  Solving for Uy, Initial residual = 0.0084023, Final residual = 1.20584e-09, No Iterations 3
DILUPBiCGStab:  Solving for O2, Initial residual = 0.00305395, Final residual = 4.37807e-09, No Iterations 3
DILUPBiCGStab:  Solving for H2O, Initial residual = 0.00305411, Final residual = 4.3781e-09, No Iterations 3
DILUPBiCGStab:  Solving for CH4, Initial residual = 0, Final residual = 0, No Iterations 0
DILUPBiCGStab:  Solving for CO2, Initial residual = 0.00305411, Final residual = 4.37814e-09, No Iterations 3
DILUPBiCGStab:  Solving for h, Initial residual = 0.00338468, Final residual = 2.75883e-09, No Iterations 3
min/max(T) = 299.439, 1044.97
GAMGPCG:  Solving for p_rgh, Initial residual = 0.0205369, Final residual = 2.13119e-07, No Iterations 5
diagonal:  Solving for rho, Initial residual = 0, Final residual = 0, No Iterations 0
time step continuity errors : sum local = 9.16046e-09, global = -2.49246e-10, cumulative = -2.43799e-07
GAMGPCG:  Solving for p_rgh, Initial residual = 0.00300757, Final residual = 5.08772e-07, No Iterations 4
diagonal:  Solving for rho, Initial residual = 0, Final residual = 0, No Iterations 0
time step continuity errors : sum local = 2.05855e-08, global = 3.63352e-09, cumulative = -2.40165e-07
DILUPBiCGStab:  Solving for omega, Initial residual = 0.000117143, Final residual = 1.74085e-09, No Iterations 2
DILUPBiCGStab:  Solving for k, Initial residual = 0.00488781, Final residual = 2.40255e-09, No Iterations 3

ExecutionTime = 1.7 s  ClockTime = 2 s

    Overall     = 0.00131076, 0.01
Time = 262

diagonal:  Solving for rho, Initial residual = 0, Final residual = 0, No Iterations 0

Execution time for mesh.update() = 0 s

DILUPBiCGStab:  Solving for Ux, Initial residual = 0.00474549, Final residual = 7.31728e-09, No Iterations 3
DILUPBiCGStab:  Solving for Uy, Initial residual = 0.00836794, Final residual = 1.26496e-09, No Iterations 3
DILUPBiCGStab:  Solving for O2, Initial residual = 0.00305332, Final residual = 4.03516e-09, No Iterations 3
DILUPBiCGStab:  Solving for H2O, Initial residual = 0.00305397, Final residual = 4.03427e-09, No Iterations 3
DILUPBiCGStab:  Solving for CH4, Initial residual = 0, Final residual = 0, No Iterations 0
DILUPBiCGStab:  Solving for CO2, Initial residual = 0.00305397, Final residual = 4.03429e-09, No Iterations 3
DILUPBiCGStab:  Solving for h, Initial residual = 0.00338639, Final residual = 3.85351e-09, No Iterations 3
min/max(T) = 299.44, 1044.97
GAMGPCG:  Solving for p_rgh, Initial residual = 0.020727, Final residual = 3.25807e-07, No Iterations 5
diagonal:  Solving for rho, Initial residual = 0, Final residual = 0, No Iterations 0
time step continuity errors : sum local = 1.37616e-08, global = 4.23559e-10, cumulative = -2.39742e-07
GAMGPCG:  Solving for p_rgh, Initial residual = 0.0030415, Final residual = 5.15012e-07, No Iterations 4
diagonal:  Solving for rho, Initial residual = 0, Final residual = 0, No Iterations 0
time step continuity errors : sum local = 2.08612e-08, global = 3.70278e-09, cumulative = -2.36039e-07
DILUPBiCGStab:  Solving for omega, Initial residual = 0.000116368, Final residual = 1.70268e-09, No Iterations 2
DILUPBiCGStab:  Solving for k, Initial residual = 0.0048683, Final residual = 2.53191e-09, No Iterations 3

ExecutionTime = 1.82 s  ClockTime = 2 s

    Overall     = 0.00131349, 0.01
Time = 263

diagonal:  Solving for rho, Initial residual = 0, Final residual = 0, No Iterations 0

Execution time for mesh.update() = 0 s

DILUPBiCGStab:  Solving for Ux, Initial residual = 0.00474517, Final residual = 7.05102e-09, No Iterations 3
DILUPBiCGStab:  Solving for Uy, Initial residual = 0.00832284, Final residual = 1.22729e-09, No Iterations 3
DILUPBiCGStab:  Solving for O2, Initial residual = 0.00304381, Final residual = 2.84939e-09, No Iterations 3
DILUPBiCGStab:  Solving for H2O, Initial residual = 0.00304393, Final residual = 2.84948e-09, No Iterations 3
DILUPBiCGStab:  Solving for CH4, Initial residual = 0, Final residual = 0, No Iterations 0
DILUPBiCGStab:  Solving for CO2, Initial residual = 0.00304393, Final residual = 2.84948e-09, No Iterations 3
DILUPBiCGStab:  Solving for h, Initial residual = 0.00337573, Final residual = 2.72715e-09, No Iterations 3
min/max(T) = 299.479, 1044.97
GAMGPCG:  Solving for p_rgh, Initial residual = 0.0203893, Final residual = 3.56787e-07, No Iterations 5
diagonal:  Solving for rho, Initial residual = 0, Final residual = 0, No Iterations 0
time step continuity errors : sum local = 1.50657e-08, global = 3.18897e-10, cumulative = -2.3572e-07
GAMGPCG:  Solving for p_rgh, Initial residual = 0.0029987, Final residual = 5.34327e-07, No Iterations 4
diagonal:  Solving for rho, Initial residual = 0, Final residual = 0, No Iterations 0
time step continuity errors : sum local = 2.16343e-08, global = 3.592e-09, cumulative = -2.32128e-07
DILUPBiCGStab:  Solving for omega, Initial residual = 0.000117393, Final residual = 1.69295e-09, No Iterations 2
DILUPBiCGStab:  Solving for k, Initial residual = 0.0048552, Final residual = 2.58657e-09, No Iterations 3

ExecutionTime = 1.94 s  ClockTime = 2 s

    Overall     = 0.00130631, 0.01
Time = 264

diagonal:  Solving for rho, Initial residual = 0, Final residual = 0, No Iterations 0

Execution time for mesh.update() = 0 s

DILUPBiCGStab:  Solving for Ux, Initial residual = 0.00474459, Final residual = 7.31258e-09, No Iterations 3
DILUPBiCGStab:  Solving for Uy, Initial residual = 0.00830585, Final residual = 1.27595e-09, No Iterations 3
DILUPBiCGStab:  Solving for O2, Initial residual = 0.00303554, Final residual = 3.7712e-09, No Iterations 3
DILUPBiCGStab:  Solving for H2O, Initial residual = 0.00303614, Final residual = 3.77124e-09, No Iterations 3
DILUPBiCGStab:  Solving for CH4, Initial residual = 0, Final residual = 0, No Iterations 0
DILUPBiCGStab:  Solving for CO2, Initial residual = 0.00303614, Final residual = 3.77124e-09, No Iterations 3
DILUPBiCGStab:  Solving for h, Initial residual = 0.00336726, Final residual = 3.38494e-09, No Iterations 3
min/max(T) = 299.482, 1044.97
GAMGPCG:  Solving for p_rgh, Initial residual = 0.0203068, Final residual = 3.15227e-07, No Iterations 5
diagonal:  Solving for rho, Initial residual = 0, Final residual = 0, No Iterations 0
time step continuity errors : sum local = 1.33072e-08, global = 2.64176e-10, cumulative = -2.31864e-07
GAMGPCG:  Solving for p_rgh, Initial residual = 0.00305983, Final residual = 5.33094e-07, No Iterations 4
diagonal:  Solving for rho, Initial residual = 0, Final residual = 0, No Iterations 0
time step continuity errors : sum local = 2.15374e-08, global = 3.54006e-09, cumulative = -2.28324e-07
DILUPBiCGStab:  Solving for omega, Initial residual = 0.000117113, Final residual = 1.78195e-09, No Iterations 2
DILUPBiCGStab:  Solving for k, Initial residual = 0.00484386, Final residual = 2.48575e-09, No Iterations 3

ExecutionTime = 2.06 s  ClockTime = 2 s

    Overall     = 0.00130926, 0.01
Time = 265

diagonal:  Solving for rho, Initial residual = 0, Final residual = 0, No Iterations 0

Execution time for mesh.update() = 0 s

DILUPBiCGStab:  Solving for Ux, Initial residual = 0.00475548, Final residual = 6.02783e-09, No Iterations 3
DILUPBiCGStab:  Solving for Uy, Initial residual = 0.00827569, Final residual = 1.18286e-09, No Iterations 3
DILUPBiCGStab:  Solving for O2, Initial residual = 0.0030281, Final residual = 3.72049e-09, No Iterations 3
DILUPBiCGStab:  Solving for H2O, Initial residual = 0.00302824, Final residual = 3.72032e-09, No Iterations 3
DILUPBiCGStab:  Solving for CH4, Initial residual = 0, Final residual = 0, No Iterations 0
DILUPBiCGStab:  Solving for CO2, Initial residual = 0.00302824, Final residual = 3.72032e-09, No Iterations 3
DILUPBiCGStab:  Solving for h, Initial residual = 0.00335816, Final residual = 3.35453e-09, No Iterations 3
min/max(T) = 299.527, 1044.97
GAMGPCG:  Solving for p_rgh, Initial residual = 0.0202576, Final residual = 3.97542e-07, No Iterations 5
diagonal:  Solving for rho, Initial residual = 0, Final residual = 0, No Iterations 0
time step continuity errors : sum local = 1.67475e-08, global = 3.81618e-10, cumulative = -2.27942e-07
GAMGPCG:  Solving for p_rgh, Initial residual = 0.00299685, Final residual = 5.5151e-07, No Iterations 4
diagonal:  Solving for rho, Initial residual = 0, Final residual = 0, No Iterations 0
time step continuity errors : sum local = 2.22836e-08, global = 3.55989e-09, cumulative = -2.24382e-07
DILUPBiCGStab:  Solving for omega, Initial residual = 0.000116166, Final residual = 1.93679e-09, No Iterations 2
DILUPBiCGStab:  Solving for k, Initial residual = 0.00484818, Final residual = 2.21344e-09, No Iterations 3

ExecutionTime = 2.18 s  ClockTime = 2 s

    Overall     = 0.00130231, 0.01
Time = 266

diagonal:  Solving for rho, Initial residual = 0, Final residual = 0, No Iterations 0

Execution time for mesh.update() = 0 s

DILUPBiCGStab:  Solving for Ux, Initial residual = 0.00475519, Final residual = 5.38601e-09, No Iterations 3
DILUPBiCGStab:  Solving for Uy, Initial residual = 0.00824409, Final residual = 1.21997e-09, No Iterations 3
DILUPBiCGStab:  Solving for O2, Initial residual = 0.00302174, Final residual = 3.66735e-09, No Iterations 3
DILUPBiCGStab:  Solving for H2O, Initial residual = 0.00302229, Final residual = 3.66735e-09, No Iterations 3
DILUPBiCGStab:  Solving for CH4, Initial residual = 0, Final residual = 0, No Iterations 0
DILUPBiCGStab:  Solving for CO2, Initial residual = 0.00302229, Final residual = 3.66735e-09, No Iterations 3
DILUPBiCGStab:  Solving for h, Initial residual = 0.00335364, Final residual = 3.45982e-09, No Iterations 3
min/max(T) = 299.53, 1044.97
GAMGPCG:  Solving for p_rgh, Initial residual = 0.0204145, Final residual = 3.41998e-07, No Iterations 5
diagonal:  Solving for rho, Initial residual = 0, Final residual = 0, No Iterations 0
time step continuity errors : sum local = 1.44226e-08, global = 4.31287e-10, cumulative = -2.23951e-07
GAMGPCG:  Solving for p_rgh, Initial residual = 0.00309085, Final residual = 5.55027e-07, No Iterations 4
diagonal:  Solving for rho, Initial residual = 0, Final residual = 0, No Iterations 0
time step continuity errors : sum local = 2.23173e-08, global = 3.31975e-09, cumulative = -2.20631e-07
DILUPBiCGStab:  Solving for omega, Initial residual = 0.0001153, Final residual = 2.24644e-09, No Iterations 2
DILUPBiCGStab:  Solving for k, Initial residual = 0.00483112, Final residual = 5.38704e-09, No Iterations 3

ExecutionTime = 2.29 s  ClockTime = 2 s

    Overall     = 0.00130477, 0.01
Time = 267

diagonal:  Solving for rho, Initial residual = 0, Final residual = 0, No Iterations 0

Execution time for mesh.update() = 0 s

DILUPBiCGStab:  Solving for Ux, Initial residual = 0.00474642, Final residual = 5.49313e-09, No Iterations 3
DILUPBiCGStab:  Solving for Uy, Initial residual = 0.00818153, Final residual = 1.13524e-09, No Iterations 3
DILUPBiCGStab:  Solving for O2, Initial residual = 0.0030184, Final residual = 3.57579e-09, No Iterations 3
DILUPBiCGStab:  Solving for H2O, Initial residual = 0.00301852, Final residual = 3.57574e-09, No Iterations 3
DILUPBiCGStab:  Solving for CH4, Initial residual = 0, Final residual = 0, No Iterations 0
DILUPBiCGStab:  Solving for CO2, Initial residual = 0.00301852, Final residual = 3.57574e-09, No Iterations 3
DILUPBiCGStab:  Solving for h, Initial residual = 0.00334887, Final residual = 3.34739e-09, No Iterations 3
min/max(T) = 299.576, 1044.97
GAMGPCG:  Solving for p_rgh, Initial residual = 0.0197779, Final residual = 4.00607e-07, No Iterations 5
diagonal:  Solving for rho, Initial residual = 0, Final residual = 0, No Iterations 0
time step continuity errors : sum local = 1.68335e-08, global = 2.87545e-10, cumulative = -2.20344e-07
GAMGPCG:  Solving for p_rgh, Initial residual = 0.00303283, Final residual = 5.33073e-07, No Iterations 4
diagonal:  Solving for rho, Initial residual = 0, Final residual = 0, No Iterations 0
time step continuity errors : sum local = 2.13859e-08, global = 3.33006e-09, cumulative = -2.17014e-07
DILUPBiCGStab:  Solving for omega, Initial residual = 0.000115943, Final residual = 2.47727e-09, No Iterations 2
DILUPBiCGStab:  Solving for k, Initial residual = 0.00480976, Final residual = 3.02024e-09, No Iterations 3

ExecutionTime = 2.41 s  ClockTime = 3 s

    Overall     = 0.00129826, 0.01
Time = 268

diagonal:  Solving for rho, Initial residual = 0, Final residual = 0, No Iterations 0

Execution time for mesh.update() = 0 s

DILUPBiCGStab:  Solving for Ux, Initial residual = 0.0047275, Final residual = 6.29894e-09, No Iterations 3
DILUPBiCGStab:  Solving for Uy, Initial residual = 0.00815047, Final residual = 9.87964e-10, No Iterations 3
DILUPBiCGStab:  Solving for O2, Initial residual = 0.00301169, Final residual = 3.94418e-09, No Iterations 3
DILUPBiCGStab:  Solving for H2O, Initial residual = 0.00301218, Final residual = 3.94398e-09, No Iterations 3
DILUPBiCGStab:  Solving for CH4, Initial residual = 0, Final residual = 0, No Iterations 0
DILUPBiCGStab:  Solving for CO2, Initial residual = 0.00301218, Final residual = 3.94398e-09, No Iterations 3
DILUPBiCGStab:  Solving for h, Initial residual = 0.00334296, Final residual = 3.83573e-09, No Iterations 3
min/max(T) = 299.579, 1044.97
GAMGPCG:  Solving for p_rgh, Initial residual = 0.0198391, Final residual = 3.54319e-07, No Iterations 5
diagonal:  Solving for rho, Initial residual = 0, Final residual = 0, No Iterations 0
time step continuity errors : sum local = 1.48926e-08, global = 4.42924e-10, cumulative = -2.16571e-07
GAMGPCG:  Solving for p_rgh, Initial residual = 0.00305074, Final residual = 5.2784e-07, No Iterations 4
diagonal:  Solving for rho, Initial residual = 0, Final residual = 0, No Iterations 0
time step continuity errors : sum local = 2.11847e-08, global = 3.21454e-09, cumulative = -2.13356e-07
DILUPBiCGStab:  Solving for omega, Initial residual = 0.000115104, Final residual = 2.58528e-09, No Iterations 2
DILUPBiCGStab:  Solving for k, Initial residual = 0.00478141, Final residual = 2.33608e-09, No Iterations 3

ExecutionTime = 2.53 s  ClockTime = 3 s

    Overall     = 0.00130031, 0.01
Time = 269

diagonal:  Solving for rho, Initial residual = 0, Final residual = 0, No Iterations 0

Execution time for mesh.update() = 0 s

DILUPBiCGStab:  Solving for Ux, Initial residual = 0.0047153, Final residual = 5.78167e-09, No Iterations 3
DILUPBiCGStab:  Solving for Uy, Initial residual = 0.0080921, Final residual = 9.05156e-10, No Iterations 3
DILUPBiCGStab:  Solving for O2, Initial residual = 0.00301211, Final residual = 4.01184e-09, No Iterations 3
DILUPBiCGStab:  Solving for H2O, Initial residual = 0.00301219, Final residual = 4.01206e-09, No Iterations 3
DILUPBiCGStab:  Solving for CH4, Initial residual = 0, Final residual = 0, No Iterations 0
DILUPBiCGStab:  Solving for CO2, Initial residual = 0.00301219, Final residual = 4.01206e-09, No Iterations 3
DILUPBiCGStab:  Solving for h, Initial residual = 0.0033413, Final residual = 3.75489e-09, No Iterations 3
min/max(T) = 299.628, 1044.97
GAMGPCG:  Solving for p_rgh, Initial residual = 0.0194458, Final residual = 4.48933e-07, No Iterations 5
diagonal:  Solving for rho, Initial residual = 0, Final residual = 0, No Iterations 0
time step continuity errors : sum local = 1.87404e-08, global = 5.14244e-10, cumulative = -2.12842e-07
GAMGPCG:  Solving for p_rgh, Initial residual = 0.0029623, Final residual = 5.43763e-07, No Iterations 4
diagonal:  Solving for rho, Initial residual = 0, Final residual = 0, No Iterations 0
time step continuity errors : sum local = 2.16158e-08, global = 3.08785e-09, cumulative = -2.09754e-07
DILUPBiCGStab:  Solving for omega, Initial residual = 0.000114379, Final residual = 2.55949e-09, No Iterations 2
DILUPBiCGStab:  Solving for k, Initial residual = 0.00476023, Final residual = 2.18834e-09, No Iterations 3

ExecutionTime = 2.64 s  ClockTime = 3 s

    Overall     = 0.00129442, 0.01
Time = 270

diagonal:  Solving for rho, Initial residual = 0, Final residual = 0, No Iterations 0

Execution time for mesh.update() = 0 s

DILUPBiCGStab:  Solving for Ux, Initial residual = 0.00469523, Final residual = 5.56525e-09, No Iterations 3
DILUPBiCGStab:  Solving for Uy, Initial residual = 0.00804856, Final residual = 8.58038e-09, No Iterations 3
GAMGPCG:  Solving for G, Initial residual = 0.131223, Final residual = 6.18968e-05, No Iterations 5
DILUPBiCGStab:  Solving for O2, Initial residual = 0.00300914, Final residual = 4.88041e-09, No Iterations 3
DILUPBiCGStab:  Solving for H2O, Initial residual = 0.00300957, Final residual = 4.87999e-09, No Iterations 3
DILUPBiCGStab:  Solving for CH4, Initial residual = 0, Final residual = 0, No Iterations 0
DILUPBiCGStab:  Solving for CO2, Initial residual = 0.00300957, Final residual = 4.88e-09, No Iterations 3
DILUPBiCGStab:  Solving for h, Initial residual = 0.00333895, Final residual = 4.47415e-09, No Iterations 3
min/max(T) = 299.627, 1044.97
GAMGPCG:  Solving for p_rgh, Initial residual = 0.0195021, Final residual = 3.06972e-07, No Iterations 5
diagonal:  Solving for rho, Initial residual = 0, Final residual = 0, No Iterations 0
time step continuity errors : sum local = 1.30181e-08, global = 4.77923e-10, cumulative = -2.09276e-07
GAMGPCG:  Solving for p_rgh, Initial residual = 0.00299801, Final residual = 5.49859e-07, No Iterations 4
diagonal:  Solving for rho, Initial residual = 0, Final residual = 0, No Iterations 0
time step continuity errors : sum local = 2.18063e-08, global = 3.01547e-09, cumulative = -2.06261e-07
DILUPBiCGStab:  Solving for omega, Initial residual = 0.000113791, Final residual = 2.60226e-09, No Iterations 2
DILUPBiCGStab:  Solving for k, Initial residual = 0.00472867, Final residual = 2.9188e-09, No Iterations 3

ExecutionTime = 2.9 s  ClockTime = 3 s

    Overall     = 0.00129589, 0.01
Time = 271

diagonal:  Solving for rho, Initial residual = 0, Final residual = 0, No Iterations 0

Execution time for mesh.update() = 0 s

DILUPBiCGStab:  Solving for Ux, Initial residual = 0.00468916, Final residual = 5.50707e-09, No Iterations 3
DILUPBiCGStab:  Solving for Uy, Initial residual = 0.00800047, Final residual = 8.32301e-09, No Iterations 3
DILUPBiCGStab:  Solving for O2, Initial residual = 0.00300693, Final residual = 5.77827e-09, No Iterations 3
DILUPBiCGStab:  Solving for H2O, Initial residual = 0.00300698, Final residual = 5.77888e-09, No Iterations 3
DILUPBiCGStab:  Solving for CH4, Initial residual = 0, Final residual = 0, No Iterations 0
DILUPBiCGStab:  Solving for CO2, Initial residual = 0.00300698, Final residual = 5.77888e-09, No Iterations 3
DILUPBiCGStab:  Solving for h, Initial residual = 0.00333662, Final residual = 5.29345e-09, No Iterations 3
min/max(T) = 299.676, 1044.97
GAMGPCG:  Solving for p_rgh, Initial residual = 0.0191648, Final residual = 3.88536e-07, No Iterations 5
diagonal:  Solving for rho, Initial residual = 0, Final residual = 0, No Iterations 0
time step continuity errors : sum local = 1.62203e-08, global = 5.74855e-10, cumulative = -2.05686e-07
GAMGPCG:  Solving for p_rgh, Initial residual = 0.00293756, Final residual = 5.60283e-07, No Iterations 4
diagonal:  Solving for rho, Initial residual = 0, Final residual = 0, No Iterations 0
time step continuity errors : sum local = 2.20248e-08, global = 2.84859e-09, cumulative = -2.02837e-07
DILUPBiCGStab:  Solving for omega, Initial residual = 0.000113363, Final residual = 2.59989e-09, No Iterations 2
DILUPBiCGStab:  Solving for k, Initial residual = 0.00472004, Final residual = 7.21077e-09, No Iterations 3

ExecutionTime = 3.02 s  ClockTime = 3 s

    Overall     = 0.00129065, 0.01
Time = 272

diagonal:  Solving for rho, Initial residual = 0, Final residual = 0, No Iterations 0

Execution time for mesh.update() = 0 s

DILUPBiCGStab:  Solving for Ux, Initial residual = 0.00466703, Final residual = 6.46368e-09, No Iterations 3
DILUPBiCGStab:  Solving for Uy, Initial residual = 0.00796172, Final residual = 8.97518e-09, No Iterations 3
DILUPBiCGStab:  Solving for O2, Initial residual = 0.00300297, Final residual = 6.0501e-09, No Iterations 3
DILUPBiCGStab:  Solving for H2O, Initial residual = 0.00300336, Final residual = 6.04976e-09, No Iterations 3
DILUPBiCGStab:  Solving for CH4, Initial residual = 0, Final residual = 0, No Iterations 0
DILUPBiCGStab:  Solving for CO2, Initial residual = 0.00300336, Final residual = 6.04976e-09, No Iterations 3
DILUPBiCGStab:  Solving for h, Initial residual = 0.00333133, Final residual = 5.78118e-09, No Iterations 3
min/max(T) = 299.672, 1044.97
GAMGPCG:  Solving for p_rgh, Initial residual = 0.0191368, Final residual = 2.40281e-07, No Iterations 5
diagonal:  Solving for rho, Initial residual = 0, Final residual = 0, No Iterations 0
time step continuity errors : sum local = 1.02908e-08, global = 2.58343e-10, cumulative = -2.02579e-07
GAMGPCG:  Solving for p_rgh, Initial residual = 0.00294054, Final residual = 5.81152e-07, No Iterations 4
diagonal:  Solving for rho, Initial residual = 0, Final residual = 0, No Iterations 0
time step continuity errors : sum local = 2.28489e-08, global = 2.86127e-09, cumulative = -1.99718e-07
DILUPBiCGStab:  Solving for omega, Initial residual = 0.000112585, Final residual = 2.59117e-09, No Iterations 2
DILUPBiCGStab:  Solving for k, Initial residual = 0.0047088, Final residual = 4.47942e-09, No Iterations 3

ExecutionTime = 3.14 s  ClockTime = 3 s

    Overall     = 0.00129192, 0.01
Time = 273

diagonal:  Solving for rho, Initial residual = 0, Final residual = 0, No Iterations 0

Execution time for mesh.update() = 0 s

DILUPBiCGStab:  Solving for Ux, Initial residual = 0.00464549, Final residual = 7.32313e-09, No Iterations 3
DILUPBiCGStab:  Solving for Uy, Initial residual = 0.00792401, Final residual = 8.67705e-09, No Iterations 3
DILUPBiCGStab:  Solving for O2, Initial residual = 0.0029989, Final residual = 5.56978e-09, No Iterations 3
DILUPBiCGStab:  Solving for H2O, Initial residual = 0.00299894, Final residual = 5.57011e-09, No Iterations 3
DILUPBiCGStab:  Solving for CH4, Initial residual = 0, Final residual = 0, No Iterations 0
DILUPBiCGStab:  Solving for CO2, Initial residual = 0.00299894, Final residual = 5.57012e-09, No Iterations 3
DILUPBiCGStab:  Solving for h, Initial residual = 0.00332642, Final residual = 5.3986e-09, No Iterations 3
min/max(T) = 299.718, 1044.97
GAMGPCG:  Solving for p_rgh, Initial residual = 0.0184012, Final residual = 3.12872e-07, No Iterations 5
diagonal:  Solving for rho, Initial residual = 0, Final residual = 0, No Iterations 0
time step continuity errors : sum local = 1.3186e-08, global = 6.48911e-10, cumulative = -1.99069e-07
GAMGPCG:  Solving for p_rgh, Initial residual = 0.00289355, Final residual = 6.04037e-07, No Iterations 4
diagonal:  Solving for rho, Initial residual = 0, Final residual = 0, No Iterations 0
time step continuity errors : sum local = 2.3776e-08, global = 2.93955e-09, cumulative = -1.96129e-07
DILUPBiCGStab:  Solving for omega, Initial residual = 0.000111661, Final residual = 2.53386e-09, No Iterations 2
DILUPBiCGStab:  Solving for k, Initial residual = 0.0047054, Final residual = 7.46553e-09, No Iterations 3

ExecutionTime = 3.26 s  ClockTime = 3 s

    Overall     = 0.00128761, 0.01
Time = 274

diagonal:  Solving for rho, Initial residual = 0, Final residual = 0, No Iterations 0

Execution time for mesh.update() = 0 s

DILUPBiCGStab:  Solving for Ux, Initial residual = 0.00462301, Final residual = 7.94068e-09, No Iterations 3
DILUPBiCGStab:  Solving for Uy, Initial residual = 0.00787993, Final residual = 8.91017e-09, No Iterations 3
DILUPBiCGStab:  Solving for O2, Initial residual = 0.0029952, Final residual = 4.64648e-09, No Iterations 3
DILUPBiCGStab:  Solving for H2O, Initial residual = 0.00299555, Final residual = 4.64637e-09, No Iterations 3
DILUPBiCGStab:  Solving for CH4, Initial residual = 0, Final residual = 0, No Iterations 0
DILUPBiCGStab:  Solving for CO2, Initial residual = 0.00299555, Final residual = 4.64637e-09, No Iterations 3
DILUPBiCGStab:  Solving for h, Initial residual = 0.00332269, Final residual = 4.69941e-09, No Iterations 3
min/max(T) = 299.709, 1044.97
GAMGPCG:  Solving for p_rgh, Initial residual = 0.0188705, Final residual = 2.31001e-07, No Iterations 5
diagonal:  Solving for rho, Initial residual = 0, Final residual = 0, No Iterations 0
time step continuity errors : sum local = 9.88828e-09, global = 3.00106e-10, cumulative = -1.95829e-07
GAMGPCG:  Solving for p_rgh, Initial residual = 0.00287883, Final residual = 5.9813e-07, No Iterations 4
diagonal:  Solving for rho, Initial residual = 0, Final residual = 0, No Iterations 0
time step continuity errors : sum local = 2.35725e-08, global = 2.84824e-09, cumulative = -1.92981e-07
DILUPBiCGStab:  Solving for omega, Initial residual = 0.000111016, Final residual = 2.55539e-09, No Iterations 2
DILUPBiCGStab:  Solving for k, Initial residual = 0.0046843, Final residual = 3.14457e-09, No Iterations 3

ExecutionTime = 3.37 s  ClockTime = 4 s

    Overall     = 0.00128896, 0.01
Time = 275

diagonal:  Solving for rho, Initial residual = 0, Final residual = 0, No Iterations 0

Execution time for mesh.update() = 0 s

DILUPBiCGStab:  Solving for Ux, Initial residual = 0.00462674, Final residual = 8.27801e-09, No Iterations 3
DILUPBiCGStab:  Solving for Uy, Initial residual = 0.00781861, Final residual = 9.62077e-09, No Iterations 3
DILUPBiCGStab:  Solving for O2, Initial residual = 0.0029862, Final residual = 4.52863e-09, No Iterations 3
DILUPBiCGStab:  Solving for H2O, Initial residual = 0.00298624, Final residual = 4.52889e-09, No Iterations 3
DILUPBiCGStab:  Solving for CH4, Initial residual = 0, Final residual = 0, No Iterations 0
DILUPBiCGStab:  Solving for CO2, Initial residual = 0.00298624, Final residual = 4.52889e-09, No Iterations 3
DILUPBiCGStab:  Solving for h, Initial residual = 0.00331225, Final residual = 4.68337e-09, No Iterations 3
min/max(T) = 299.748, 1044.97
GAMGPCG:  Solving for p_rgh, Initial residual = 0.0186191, Final residual = 2.62564e-07, No Iterations 5
diagonal:  Solving for rho, Initial residual = 0, Final residual = 0, No Iterations 0
time step continuity errors : sum local = 1.10981e-08, global = 4.81158e-10, cumulative = -1.925e-07
GAMGPCG:  Solving for p_rgh, Initial residual = 0.00288939, Final residual = 6.25381e-07, No Iterations 4
diagonal:  Solving for rho, Initial residual = 0, Final residual = 0, No Iterations 0
time step continuity errors : sum local = 2.46263e-08, global = 2.96375e-09, cumulative = -1.89536e-07
DILUPBiCGStab:  Solving for omega, Initial residual = 0.00011057, Final residual = 2.40416e-09, No Iterations 2
DILUPBiCGStab:  Solving for k, Initial residual = 0.00469801, Final residual = 3.36846e-09, No Iterations 3

ExecutionTime = 3.49 s  ClockTime = 4 s

    Overall     = 0.0012853, 0.01
Time = 276

diagonal:  Solving for rho, Initial residual = 0, Final residual = 0, No Iterations 0

Execution time for mesh.update() = 0.01 s

DILUPBiCGStab:  Solving for Ux, Initial residual = 0.00461936, Final residual = 9.64681e-09, No Iterations 3
DILUPBiCGStab:  Solving for Uy, Initial residual = 0.00779978, Final residual = 9.91426e-09, No Iterations 3
DILUPBiCGStab:  Solving for O2, Initial residual = 0.00297879, Final residual = 4.14306e-09, No Iterations 3
DILUPBiCGStab:  Solving for H2O, Initial residual = 0.00297912, Final residual = 4.14286e-09, No Iterations 3
DILUPBiCGStab:  Solving for CH4, Initial residual = 0, Final residual = 0, No Iterations 0
DILUPBiCGStab:  Solving for CO2, Initial residual = 0.00297912, Final residual = 4.14286e-09, No Iterations 3
DILUPBiCGStab:  Solving for h, Initial residual = 0.00330555, Final residual = 4.27591e-09, No Iterations 3
min/max(T) = 299.734, 1044.97
GAMGPCG:  Solving for p_rgh, Initial residual = 0.0188307, Final residual = 2.10696e-07, No Iterations 5
diagonal:  Solving for rho, Initial residual = 0, Final residual = 0, No Iterations 0
time step continuity errors : sum local = 9.06793e-09, global = 6.70276e-11, cumulative = -1.89469e-07
GAMGPCG:  Solving for p_rgh, Initial residual = 0.00290117, Final residual = 6.25883e-07, No Iterations 4
diagonal:  Solving for rho, Initial residual = 0, Final residual = 0, No Iterations 0
time step continuity errors : sum local = 2.4689e-08, global = 2.92422e-09, cumulative = -1.86545e-07
DILUPBiCGStab:  Solving for omega, Initial residual = 0.000109654, Final residual = 2.3405e-09, No Iterations 2
DILUPBiCGStab:  Solving for k, Initial residual = 0.00469475, Final residual = 3.95921e-09, No Iterations 3

ExecutionTime = 3.61 s  ClockTime = 4 s

    Overall     = 0.00128725, 0.01
Time = 277

diagonal:  Solving for rho, Initial residual = 0, Final residual = 0, No Iterations 0

Execution time for mesh.update() = 0 s

DILUPBiCGStab:  Solving for Ux, Initial residual = 0.00464808, Final residual = 9.39267e-09, No Iterations 3
DILUPBiCGStab:  Solving for Uy, Initial residual = 0.00783167, Final residual = 1.50364e-09, No Iterations 3
DILUPBiCGStab:  Solving for O2, Initial residual = 0.00296899, Final residual = 3.94372e-09, No Iterations 3
DILUPBiCGStab:  Solving for H2O, Initial residual = 0.00296904, Final residual = 3.94404e-09, No Iterations 3
DILUPBiCGStab:  Solving for CH4, Initial residual = 0, Final residual = 0, No Iterations 0
DILUPBiCGStab:  Solving for CO2, Initial residual = 0.00296904, Final residual = 3.94404e-09, No Iterations 3
DILUPBiCGStab:  Solving for h, Initial residual = 0.00329264, Final residual = 4.14394e-09, No Iterations 3
min/max(T) = 299.765, 1044.97
GAMGPCG:  Solving for p_rgh, Initial residual = 0.0186849, Final residual = 2.11023e-07, No Iterations 5
diagonal:  Solving for rho, Initial residual = 0, Final residual = 0, No Iterations 0
time step continuity errors : sum local = 9.07887e-09, global = 4.75824e-11, cumulative = -1.86497e-07
GAMGPCG:  Solving for p_rgh, Initial residual = 0.00288427, Final residual = 6.36766e-07, No Iterations 4
diagonal:  Solving for rho, Initial residual = 0, Final residual = 0, No Iterations 0
time step continuity errors : sum local = 2.51085e-08, global = 2.89388e-09, cumulative = -1.83603e-07
DILUPBiCGStab:  Solving for omega, Initial residual = 0.000108666, Final residual = 2.24102e-09, No Iterations 2
DILUPBiCGStab:  Solving for k, Initial residual = 0.0046871, Final residual = 4.16997e-09, No Iterations 3

ExecutionTime = 3.73 s  ClockTime = 4 s

    Overall     = 0.00128427, 0.01
Time = 278

diagonal:  Solving for rho, Initial residual = 0, Final residual = 0, No Iterations 0

Execution time for mesh.update() = 0 s

DILUPBiCGStab:  Solving for Ux, Initial residual = 0.00464237, Final residual = 8.96825e-09, No Iterations 3
DILUPBiCGStab:  Solving for Uy, Initial residual = 0.00780956, Final residual = 1.56779e-09, No Iterations 3
DILUPBiCGStab:  Solving for O2, Initial residual = 0.00296587, Final residual = 3.90985e-09, No Iterations 3
DILUPBiCGStab:  Solving for H2O, Initial residual = 0.00296618, Final residual = 3.90946e-09, No Iterations 3
DILUPBiCGStab:  Solving for CH4, Initial residual = 0, Final residual = 0, No Iterations 0
DILUPBiCGStab:  Solving for CO2, Initial residual = 0.00296618, Final residual = 3.90946e-09, No Iterations 3
DILUPBiCGStab:  Solving for h, Initial residual = 0.00329098, Final residual = 4.27168e-09, No Iterations 3
min/max(T) = 299.747, 1044.97
GAMGPCG:  Solving for p_rgh, Initial residual = 0.0185747, Final residual = 2.02691e-07, No Iterations 5
diagonal:  Solving for rho, Initial residual = 0, Final residual = 0, No Iterations 0
time step continuity errors : sum local = 8.82787e-09, global = -3.54432e-10, cumulative = -1.83958e-07
GAMGPCG:  Solving for p_rgh, Initial residual = 0.00285151, Final residual = 6.41363e-07, No Iterations 4
diagonal:  Solving for rho, Initial residual = 0, Final residual = 0, No Iterations 0
time step continuity errors : sum local = 2.53613e-08, global = 2.97145e-09, cumulative = -1.80986e-07
DILUPBiCGStab:  Solving for omega, Initial residual = 0.000107686, Final residual = 2.11148e-09, No Iterations 2
DILUPBiCGStab:  Solving for k, Initial residual = 0.00466965, Final residual = 3.68189e-09, No Iterations 3

ExecutionTime = 3.85 s  ClockTime = 4 s

    Overall     = 0.00128699, 0.01
Time = 279

diagonal:  Solving for rho, Initial residual = 0, Final residual = 0, No Iterations 0

Execution time for mesh.update() = 0 s

DILUPBiCGStab:  Solving for Ux, Initial residual = 0.00462948, Final residual = 8.6404e-09, No Iterations 3
DILUPBiCGStab:  Solving for Uy, Initial residual = 0.0077712, Final residual = 1.55348e-09, No Iterations 3
DILUPBiCGStab:  Solving for O2, Initial residual = 0.00295894, Final residual = 3.7021e-09, No Iterations 3
DILUPBiCGStab:  Solving for H2O, Initial residual = 0.00295896, Final residual = 3.70253e-09, No Iterations 3
DILUPBiCGStab:  Solving for CH4, Initial residual = 0, Final residual = 0, No Iterations 0
DILUPBiCGStab:  Solving for CO2, Initial residual = 0.00295896, Final residual = 3.70253e-09, No Iterations 3
DILUPBiCGStab:  Solving for h, Initial residual = 0.00328492, Final residual = 4.09162e-09, No Iterations 3
min/max(T) = 299.769, 1044.97
GAMGPCG:  Solving for p_rgh, Initial residual = 0.0182733, Final residual = 2.06753e-07, No Iterations 5
diagonal:  Solving for rho, Initial residual = 0, Final residual = 0, No Iterations 0
time step continuity errors : sum local = 8.88897e-09, global = -5.70495e-10, cumulative = -1.81557e-07
GAMGPCG:  Solving for p_rgh, Initial residual = 0.00284744, Final residual = 6.71226e-07, No Iterations 4
diagonal:  Solving for rho, Initial residual = 0, Final residual = 0, No Iterations 0
time step continuity errors : sum local = 2.65719e-08, global = 3.07846e-09, cumulative = -1.78478e-07
DILUPBiCGStab:  Solving for omega, Initial residual = 0.000106988, Final residual = 1.99642e-09, No Iterations 2
DILUPBiCGStab:  Solving for k, Initial residual = 0.00464198, Final residual = 3.8113e-09, No Iterations 3

ExecutionTime = 3.97 s  ClockTime = 4 s

    Overall     = 0.00128457, 0.01
Time = 280

diagonal:  Solving for rho, Initial residual = 0, Final residual = 0, No Iterations 0

Execution time for mesh.update() = 0 s

DILUPBiCGStab:  Solving for Ux, Initial residual = 0.00463125, Final residual = 9.84101e-09, No Iterations 3
DILUPBiCGStab:  Solving for Uy, Initial residual = 0.00776116, Final residual = 1.51469e-09, No Iterations 3
GAMGPCG:  Solving for G, Initial residual = 0.12588, Final residual = 6.79917e-05, No Iterations 5
DILUPBiCGStab:  Solving for O2, Initial residual = 0.00296404, Final residual = 3.39612e-09, No Iterations 3
DILUPBiCGStab:  Solving for H2O, Initial residual = 0.00296432, Final residual = 3.39577e-09, No Iterations 3
DILUPBiCGStab:  Solving for CH4, Initial residual = 0, Final residual = 0, No Iterations 0
DILUPBiCGStab:  Solving for CO2, Initial residual = 0.00296432, Final residual = 3.39577e-09, No Iterations 3
DILUPBiCGStab:  Solving for h, Initial residual = 0.00329066, Final residual = 4.72484e-09, No Iterations 3
min/max(T) = 299.747, 1044.97
GAMGPCG:  Solving for p_rgh, Initial residual = 0.018731, Final residual = 2.0608e-07, No Iterations 5
diagonal:  Solving for rho, Initial residual = 0, Final residual = 0, No Iterations 0
time step continuity errors : sum local = 8.98271e-09, global = -4.40597e-10, cumulative = -1.78919e-07
GAMGPCG:  Solving for p_rgh, Initial residual = 0.0028146, Final residual = 6.2109e-07, No Iterations 4
diagonal:  Solving for rho, Initial residual = 0, Final residual = 0, No Iterations 0
time step continuity errors : sum local = 2.4603e-08, global = 3.05128e-09, cumulative = -1.75868e-07
DILUPBiCGStab:  Solving for omega, Initial residual = 0.000106273, Final residual = 1.87805e-09, No Iterations 2
DILUPBiCGStab:  Solving for k, Initial residual = 0.00462613, Final residual = 4.24695e-09, No Iterations 3

ExecutionTime = 4.22 s  ClockTime = 4 s

    Overall     = 0.00128814, 0.01
Time = 281

diagonal:  Solving for rho, Initial residual = 0, Final residual = 0, No Iterations 0

Execution time for mesh.update() = 0 s

DILUPBiCGStab:  Solving for Ux, Initial residual = 0.00462981, Final residual = 7.60523e-09, No Iterations 3
DILUPBiCGStab:  Solving for Uy, Initial residual = 0.00774803, Final residual = 1.47986e-09, No Iterations 3
DILUPBiCGStab:  Solving for O2, Initial residual = 0.00296024, Final residual = 3.49622e-09, No Iterations 3
DILUPBiCGStab:  Solving for H2O, Initial residual = 0.00296029, Final residual = 3.49662e-09, No Iterations 3
DILUPBiCGStab:  Solving for CH4, Initial residual = 0, Final residual = 0, No Iterations 0
DILUPBiCGStab:  Solving for CO2, Initial residual = 0.00296029, Final residual = 3.49662e-09, No Iterations 3
DILUPBiCGStab:  Solving for h, Initial residual = 0.00329059, Final residual = 4.68629e-09, No Iterations 3
min/max(T) = 299.76, 1044.97
GAMGPCG:  Solving for p_rgh, Initial residual = 0.0187131, Final residual = 1.93241e-07, No Iterations 5
diagonal:  Solving for rho, Initial residual = 0, Final residual = 0, No Iterations 0
time step continuity errors : sum local = 8.39994e-09, global = -5.8227e-10, cumulative = -1.7645e-07
GAMGPCG:  Solving for p_rgh, Initial residual = 0.00281518, Final residual = 6.67944e-07, No Iterations 4
diagonal:  Solving for rho, Initial residual = 0, Final residual = 0, No Iterations 0
time step continuity errors : sum local = 2.65046e-08, global = 3.2573e-09, cumulative = -1.73193e-07
DILUPBiCGStab:  Solving for omega, Initial residual = 0.000106017, Final residual = 1.77997e-09, No Iterations 2
DILUPBiCGStab:  Solving for k, Initial residual = 0.00461928, Final residual = 4.65584e-09, No Iterations 3

ExecutionTime = 4.34 s  ClockTime = 4 s

    Overall     = 0.00128644, 0.01
Time = 282

diagonal:  Solving for rho, Initial residual = 0, Final residual = 0, No Iterations 0

Execution time for mesh.update() = 0 s

DILUPBiCGStab:  Solving for Ux, Initial residual = 0.00462704, Final residual = 6.44158e-09, No Iterations 3
DILUPBiCGStab:  Solving for Uy, Initial residual = 0.00776519, Final residual = 1.48633e-09, No Iterations 3
DILUPBiCGStab:  Solving for O2, Initial residual = 0.00295699, Final residual = 3.04013e-09, No Iterations 3
DILUPBiCGStab:  Solving for H2O, Initial residual = 0.00295727, Final residual = 3.03979e-09, No Iterations 3
DILUPBiCGStab:  Solving for CH4, Initial residual = 0, Final residual = 0, No Iterations 0
DILUPBiCGStab:  Solving for CO2, Initial residual = 0.00295727, Final residual = 3.03979e-09, No Iterations 3
DILUPBiCGStab:  Solving for h, Initial residual = 0.00328918, Final residual = 3.1006e-09, No Iterations 3
min/max(T) = 299.733, 1044.97
GAMGPCG:  Solving for p_rgh, Initial residual = 0.0190488, Final residual = 2.15133e-07, No Iterations 5
diagonal:  Solving for rho, Initial residual = 0, Final residual = 0, No Iterations 0
time step continuity errors : sum local = 9.32286e-09, global = -4.26086e-10, cumulative = -1.73619e-07
GAMGPCG:  Solving for p_rgh, Initial residual = 0.00282874, Final residual = 6.22109e-07, No Iterations 4
diagonal:  Solving for rho, Initial residual = 0, Final residual = 0, No Iterations 0
time step continuity errors : sum local = 2.47677e-08, global = 3.28937e-09, cumulative = -1.70329e-07
DILUPBiCGStab:  Solving for omega, Initial residual = 0.000104634, Final residual = 1.74006e-09, No Iterations 2
DILUPBiCGStab:  Solving for k, Initial residual = 0.00462929, Final residual = 3.90963e-09, No Iterations 3

ExecutionTime = 4.46 s  ClockTime = 5 s

    Overall     = 0.00129075, 0.01
Time = 283

diagonal:  Solving for rho, Initial residual = 0, Final residual = 0, No Iterations 0

Execution time for mesh.update() = 0 s

DILUPBiCGStab:  Solving for Ux, Initial residual = 0.00462452, Final residual = 6.16412e-09, No Iterations 3
DILUPBiCGStab:  Solving for Uy, Initial residual = 0.00773916, Final residual = 1.36782e-09, No Iterations 3
DILUPBiCGStab:  Solving for O2, Initial residual = 0.00295233, Final residual = 3.40586e-09, No Iterations 3
DILUPBiCGStab:  Solving for H2O, Initial residual = 0.0029524, Final residual = 3.40629e-09, No Iterations 3
DILUPBiCGStab:  Solving for CH4, Initial residual = 0, Final residual = 0, No Iterations 0
DILUPBiCGStab:  Solving for CO2, Initial residual = 0.0029524, Final residual = 3.40629e-09, No Iterations 3
DILUPBiCGStab:  Solving for h, Initial residual = 0.00328359, Final residual = 3.37393e-09, No Iterations 3
min/max(T) = 299.738, 1044.97
GAMGPCG:  Solving for p_rgh, Initial residual = 0.0190348, Final residual = 1.84194e-07, No Iterations 5
diagonal:  Solving for rho, Initial residual = 0, Final residual = 0, No Iterations 0
time step continuity errors : sum local = 8.10261e-09, global = -2.97355e-10, cumulative = -1.70627e-07
GAMGPCG:  Solving for p_rgh, Initial residual = 0.00282062, Final residual = 6.28355e-07, No Iterations 4
diagonal:  Solving for rho, Initial residual = 0, Final residual = 0, No Iterations 0
time step continuity errors : sum local = 2.50891e-08, global = 3.2505e-09, cumulative = -1.67376e-07
DILUPBiCGStab:  Solving for omega, Initial residual = 0.000103942, Final residual = 1.67402e-09, No Iterations 2
DILUPBiCGStab:  Solving for k, Initial residual = 0.00462549, Final residual = 3.45318e-09, No Iterations 3

ExecutionTime = 4.57 s  ClockTime = 5 s

    Overall     = 0.0012896, 0.01
Time = 284

diagonal:  Solving for rho, Initial residual = 0, Final residual = 0, No Iterations 0

Execution time for mesh.update() = 0 s

DILUPBiCGStab:  Solving for Ux, Initial residual = 0.00462212, Final residual = 5.99472e-09, No Iterations 3
DILUPBiCGStab:  Solving for Uy, Initial residual = 0.0077313, Final residual = 1.3496e-09, No Iterations 3
DILUPBiCGStab:  Solving for O2, Initial residual = 0.0029508, Final residual = 3.75804e-09, No Iterations 3
DILUPBiCGStab:  Solving for H2O, Initial residual = 0.00295111, Final residual = 3.75737e-09, No Iterations 3
DILUPBiCGStab:  Solving for CH4, Initial residual = 0, Final residual = 0, No Iterations 0
DILUPBiCGStab:  Solving for CO2, Initial residual = 0.00295111, Final residual = 3.75737e-09, No Iterations 3
DILUPBiCGStab:  Solving for h, Initial residual = 0.00328566, Final residual = 3.71232e-09, No Iterations 3
min/max(T) = 299.709, 1044.97
GAMGPCG:  Solving for p_rgh, Initial residual = 0.0191194, Final residual = 2.07202e-07, No Iterations 5
diagonal:  Solving for rho, Initial residual = 0, Final residual = 0, No Iterations 0
time step continuity errors : sum local = 8.9323e-09, global = -2.01414e-10, cumulative = -1.67578e-07
GAMGPCG:  Solving for p_rgh, Initial residual = 0.00285951, Final residual = 5.50743e-07, No Iterations 4
diagonal:  Solving for rho, Initial residual = 0, Final residual = 0, No Iterations 0
time step continuity errors : sum local = 2.19097e-08, global = 2.82911e-09, cumulative = -1.64749e-07
DILUPBiCGStab:  Solving for omega, Initial residual = 0.000103138, Final residual = 1.63599e-09, No Iterations 2
DILUPBiCGStab:  Solving for k, Initial residual = 0.00461753, Final residual = 2.25541e-09, No Iterations 3

ExecutionTime = 4.69 s  ClockTime = 5 s

    Overall     = 0.00129452, 0.01
Time = 285

diagonal:  Solving for rho, Initial residual = 0, Final residual = 0, No Iterations 0

Execution time for mesh.update() = 0 s

DILUPBiCGStab:  Solving for Ux, Initial residual = 0.00462201, Final residual = 5.91374e-09, No Iterations 3
DILUPBiCGStab:  Solving for Uy, Initial residual = 0.00773494, Final residual = 1.43015e-09, No Iterations 3
DILUPBiCGStab:  Solving for O2, Initial residual = 0.00294434, Final residual = 4.85159e-09, No Iterations 3
DILUPBiCGStab:  Solving for H2O, Initial residual = 0.00294445, Final residual = 4.85346e-09, No Iterations 3
DILUPBiCGStab:  Solving for CH4, Initial residual = 0, Final residual = 0, No Iterations 0
DILUPBiCGStab:  Solving for CO2, Initial residual = 0.00294445, Final residual = 4.85346e-09, No Iterations 3
DILUPBiCGStab:  Solving for h, Initial residual = 0.00328299, Final residual = 4.7923e-09, No Iterations 3
min/max(T) = 299.708, 1044.97
GAMGPCG:  Solving for p_rgh, Initial residual = 0.0195689, Final residual = 1.89243e-07, No Iterations 5
diagonal:  Solving for rho, Initial residual = 0, Final residual = 0, No Iterations 0
time step continuity errors : sum local = 8.23895e-09, global = -1.39957e-10, cumulative = -1.64888e-07
GAMGPCG:  Solving for p_rgh, Initial residual = 0.00291134, Final residual = 5.81724e-07, No Iterations 4
diagonal:  Solving for rho, Initial residual = 0, Final residual = 0, No Iterations 0
time step continuity errors : sum local = 2.31527e-08, global = 2.86308e-09, cumulative = -1.62025e-07
DILUPBiCGStab:  Solving for omega, Initial residual = 0.000102334, Final residual = 1.5768e-09, No Iterations 2
DILUPBiCGStab:  Solving for k, Initial residual = 0.00461815, Final residual = 2.58422e-09, No Iterations 3

ExecutionTime = 4.81 s  ClockTime = 5 s

    Overall     = 0.0012938, 0.01
Time = 286

diagonal:  Solving for rho, Initial residual = 0, Final residual = 0, No Iterations 0

Execution time for mesh.update() = 0 s

DILUPBiCGStab:  Solving for Ux, Initial residual = 0.00462261, Final residual = 5.97089e-09, No Iterations 3
DILUPBiCGStab:  Solving for Uy, Initial residual = 0.00775484, Final residual = 1.41713e-09, No Iterations 3
DILUPBiCGStab:  Solving for O2, Initial residual = 0.00294264, Final residual = 4.98331e-09, No Iterations 3
DILUPBiCGStab:  Solving for H2O, Initial residual = 0.002943, Final residual = 4.98185e-09, No Iterations 3
DILUPBiCGStab:  Solving for CH4, Initial residual = 0, Final residual = 0, No Iterations 0
DILUPBiCGStab:  Solving for CO2, Initial residual = 0.002943, Final residual = 4.98186e-09, No Iterations 3
DILUPBiCGStab:  Solving for h, Initial residual = 0.00328186, Final residual = 4.66292e-09, No Iterations 3
min/max(T) = 299.676, 1044.97
GAMGPCG:  Solving for p_rgh, Initial residual = 0.0197158, Final residual = 2.15211e-07, No Iterations 5
diagonal:  Solving for rho, Initial residual = 0, Final residual = 0, No Iterations 0
time step continuity errors : sum local = 9.34077e-09, global = 9.90141e-11, cumulative = -1.61926e-07
GAMGPCG:  Solving for p_rgh, Initial residual = 0.00293305, Final residual = 5.25705e-07, No Iterations 4
diagonal:  Solving for rho, Initial residual = 0, Final residual = 0, No Iterations 0
time step continuity errors : sum local = 2.09975e-08, global = 2.68286e-09, cumulative = -1.59244e-07
DILUPBiCGStab:  Solving for omega, Initial residual = 0.000100789, Final residual = 1.53028e-09, No Iterations 2
DILUPBiCGStab:  Solving for k, Initial residual = 0.00461164, Final residual = 3.66623e-09, No Iterations 3

ExecutionTime = 4.93 s  ClockTime = 5 s

    Overall     = 0.00129918, 0.01
Time = 287

diagonal:  Solving for rho, Initial residual = 0, Final residual = 0, No Iterations 0

Execution time for mesh.update() = 0 s

DILUPBiCGStab:  Solving for Ux, Initial residual = 0.00461586, Final residual = 6.81809e-09, No Iterations 3
DILUPBiCGStab:  Solving for Uy, Initial residual = 0.0077465, Final residual = 1.48785e-09, No Iterations 3
DILUPBiCGStab:  Solving for O2, Initial residual = 0.00293651, Final residual = 3.44805e-09, No Iterations 3
DILUPBiCGStab:  Solving for H2O, Initial residual = 0.00293663, Final residual = 3.4481e-09, No Iterations 3
DILUPBiCGStab:  Solving for CH4, Initial residual = 0, Final residual = 0, No Iterations 0
DILUPBiCGStab:  Solving for CO2, Initial residual = 0.00293663, Final residual = 3.4481e-09, No Iterations 3
DILUPBiCGStab:  Solving for h, Initial residual = 0.00328034, Final residual = 3.52985e-09, No Iterations 3
min/max(T) = 299.67, 1044.97
GAMGPCG:  Solving for p_rgh, Initial residual = 0.0197168, Final residual = 1.80141e-07, No Iterations 5
diagonal:  Solving for rho, Initial residual = 0, Final residual = 0, No Iterations 0
time step continuity errors : sum local = 7.85824e-09, global = 2.24427e-10, cumulative = -1.59019e-07
GAMGPCG:  Solving for p_rgh, Initial residual = 0.00303492, Final residual = 5.37228e-07, No Iterations 4
diagonal:  Solving for rho, Initial residual = 0, Final residual = 0, No Iterations 0
time step continuity errors : sum local = 2.1378e-08, global = 2.42863e-09, cumulative = -1.5659e-07
DILUPBiCGStab:  Solving for omega, Initial residual = 0.000100588, Final residual = 1.57494e-09, No Iterations 2
DILUPBiCGStab:  Solving for k, Initial residual = 0.00460624, Final residual = 6.43386e-09, No Iterations 3

ExecutionTime = 5.05 s  ClockTime = 5 s

    Overall     = 0.00129867, 0.01
Time = 288

diagonal:  Solving for rho, Initial residual = 0, Final residual = 0, No Iterations 0

Execution time for mesh.update() = 0 s

DILUPBiCGStab:  Solving for Ux, Initial residual = 0.00461487, Final residual = 6.69541e-09, No Iterations 3
DILUPBiCGStab:  Solving for Uy, Initial residual = 0.00775366, Final residual = 1.54934e-09, No Iterations 3
DILUPBiCGStab:  Solving for O2, Initial residual = 0.00292711, Final residual = 3.33826e-09, No Iterations 3
DILUPBiCGStab:  Solving for H2O, Initial residual = 0.00292747, Final residual = 3.33761e-09, No Iterations 3
DILUPBiCGStab:  Solving for CH4, Initial residual = 0, Final residual = 0, No Iterations 0
DILUPBiCGStab:  Solving for CO2, Initial residual = 0.00292747, Final residual = 3.33761e-09, No Iterations 3
DILUPBiCGStab:  Solving for h, Initial residual = 0.00327211, Final residual = 3.39249e-09, No Iterations 3
min/max(T) = 299.636, 1044.97
GAMGPCG:  Solving for p_rgh, Initial residual = 0.0203753, Final residual = 1.91106e-07, No Iterations 5
diagonal:  Solving for rho, Initial residual = 0, Final residual = 0, No Iterations 0
time step continuity errors : sum local = 8.36024e-09, global = 4.60301e-10, cumulative = -1.5613e-07
GAMGPCG:  Solving for p_rgh, Initial residual = 0.00299419, Final residual = 4.83025e-07, No Iterations 4
diagonal:  Solving for rho, Initial residual = 0, Final residual = 0, No Iterations 0
time step continuity errors : sum local = 1.92858e-08, global = 2.15398e-09, cumulative = -1.53976e-07
DILUPBiCGStab:  Solving for omega, Initial residual = 9.97484e-05, Final residual = 1.63614e-09, No Iterations 2
DILUPBiCGStab:  Solving for k, Initial residual = 0.00460073, Final residual = 3.02337e-09, No Iterations 3

ExecutionTime = 5.17 s  ClockTime = 5 s

    Overall     = 0.00130411, 0.01
Time = 289

diagonal:  Solving for rho, Initial residual = 0, Final residual = 0, No Iterations 0

Execution time for mesh.update() = 0 s

DILUPBiCGStab:  Solving for Ux, Initial residual = 0.0046156, Final residual = 6.89984e-09, No Iterations 3
DILUPBiCGStab:  Solving for Uy, Initial residual = 0.00777303, Final residual = 1.46972e-09, No Iterations 3
DILUPBiCGStab:  Solving for O2, Initial residual = 0.00292282, Final residual = 3.69408e-09, No Iterations 3
DILUPBiCGStab:  Solving for H2O, Initial residual = 0.00292295, Final residual = 3.69356e-09, No Iterations 3
DILUPBiCGStab:  Solving for CH4, Initial residual = 0, Final residual = 0, No Iterations 0
DILUPBiCGStab:  Solving for CO2, Initial residual = 0.00292295, Final residual = 3.69356e-09, No Iterations 3
DILUPBiCGStab:  Solving for h, Initial residual = 0.00326947, Final residual = 3.74173e-09, No Iterations 3
min/max(T) = 299.626, 1044.97
GAMGPCG:  Solving for p_rgh, Initial residual = 0.0203039, Final residual = 2.0395e-07, No Iterations 5
diagonal:  Solving for rho, Initial residual = 0, Final residual = 0, No Iterations 0
time step continuity errors : sum local = 8.86575e-09, global = 5.6496e-10, cumulative = -1.53411e-07
GAMGPCG:  Solving for p_rgh, Initial residual = 0.00305686, Final residual = 4.69574e-07, No Iterations 4
diagonal:  Solving for rho, Initial residual = 0, Final residual = 0, No Iterations 0
time step continuity errors : sum local = 1.89042e-08, global = 1.72107e-09, cumulative = -1.5169e-07
DILUPBiCGStab:  Solving for omega, Initial residual = 9.90225e-05, Final residual = 1.72456e-09, No Iterations 2
DILUPBiCGStab:  Solving for k, Initial residual = 0.00459445, Final residual = 3.63794e-09, No Iterations 3

ExecutionTime = 5.28 s  ClockTime = 5 s

    Overall     = 0.00130365, 0.01
Time = 290

diagonal:  Solving for rho, Initial residual = 0, Final residual = 0, No Iterations 0

Execution time for mesh.update() = 0 s

DILUPBiCGStab:  Solving for Ux, Initial residual = 0.00461258, Final residual = 6.67928e-09, No Iterations 3
DILUPBiCGStab:  Solving for Uy, Initial residual = 0.00773833, Final residual = 1.44171e-09, No Iterations 3
GAMGPCG:  Solving for G, Initial residual = 0.15038, Final residual = 6.81043e-05, No Iterations 5
DILUPBiCGStab:  Solving for O2, Initial residual = 0.00291052, Final residual = 2.85546e-09, No Iterations 3
DILUPBiCGStab:  Solving for H2O, Initial residual = 0.00291093, Final residual = 2.85512e-09, No Iterations 3
DILUPBiCGStab:  Solving for CH4, Initial residual = 0, Final residual = 0, No Iterations 0
DILUPBiCGStab:  Solving for CO2, Initial residual = 0.00291093, Final residual = 2.85512e-09, No Iterations 3
DILUPBiCGStab:  Solving for h, Initial residual = 0.00325573, Final residual = 3.0956e-09, No Iterations 3
min/max(T) = 299.591, 1044.97
GAMGPCG:  Solving for p_rgh, Initial residual = 0.020462, Final residual = 2.07646e-07, No Iterations 5
diagonal:  Solving for rho, Initial residual = 0, Final residual = 0, No Iterations 0
time step continuity errors : sum local = 9.05796e-09, global = 6.16251e-10, cumulative = -1.51074e-07
GAMGPCG:  Solving for p_rgh, Initial residual = 0.00305047, Final residual = 4.46974e-07, No Iterations 4
diagonal:  Solving for rho, Initial residual = 0, Final residual = 0, No Iterations 0
time step continuity errors : sum local = 1.80285e-08, global = 1.52852e-09, cumulative = -1.49545e-07
DILUPBiCGStab:  Solving for omega, Initial residual = 9.83196e-05, Final residual = 1.76658e-09, No Iterations 2
DILUPBiCGStab:  Solving for k, Initial residual = 0.00459336, Final residual = 2.6822e-09, No Iterations 3

ExecutionTime = 5.54 s  ClockTime = 6 s

    Overall     = 0.00130893, 0.01
Time = 291

diagonal:  Solving for rho, Initial residual = 0, Final residual = 0, No Iterations 0

Execution time for mesh.update() = 0 s

DILUPBiCGStab:  Solving for Ux, Initial residual = 0.00461705, Final residual = 6.87858e-09, No Iterations 3
DILUPBiCGStab:  Solving for Uy, Initial residual = 0.00774297, Final residual = 1.44542e-09, No Iterations 3
DILUPBiCGStab:  Solving for O2, Initial residual = 0.00289977, Final residual = 2.59112e-09, No Iterations 3
DILUPBiCGStab:  Solving for H2O, Initial residual = 0.00289992, Final residual = 2.59118e-09, No Iterations 3
DILUPBiCGStab:  Solving for CH4, Initial residual = 0, Final residual = 0, No Iterations 0
DILUPBiCGStab:  Solving for CO2, Initial residual = 0.00289992, Final residual = 2.59118e-09, No Iterations 3
DILUPBiCGStab:  Solving for h, Initial residual = 0.0032472, Final residual = 2.80174e-09, No Iterations 3
min/max(T) = 299.58, 1044.97
GAMGPCG:  Solving for p_rgh, Initial residual = 0.0205964, Final residual = 1.81169e-07, No Iterations 5
diagonal:  Solving for rho, Initial residual = 0, Final residual = 0, No Iterations 0
time step continuity errors : sum local = 7.9412e-09, global = 7.4722e-10, cumulative = -1.48798e-07
GAMGPCG:  Solving for p_rgh, Initial residual = 0.00311418, Final residual = 4.2952e-07, No Iterations 4
diagonal:  Solving for rho, Initial residual = 0, Final residual = 0, No Iterations 0
time step continuity errors : sum local = 1.75163e-08, global = 1.19986e-09, cumulative = -1.47598e-07
DILUPBiCGStab:  Solving for omega, Initial residual = 9.79912e-05, Final residual = 1.87396e-09, No Iterations 2
DILUPBiCGStab:  Solving for k, Initial residual = 0.00459254, Final residual = 2.15327e-09, No Iterations 3

ExecutionTime = 5.66 s  ClockTime = 6 s

    Overall     = 0.00130819, 0.01
Time = 292

diagonal:  Solving for rho, Initial residual = 0, Final residual = 0, No Iterations 0

Execution time for mesh.update() = 0 s

DILUPBiCGStab:  Solving for Ux, Initial residual = 0.00461701, Final residual = 6.39948e-09, No Iterations 3
DILUPBiCGStab:  Solving for Uy, Initial residual = 0.00772145, Final residual = 1.41293e-09, No Iterations 3
DILUPBiCGStab:  Solving for O2, Initial residual = 0.00288404, Final residual = 2.68087e-09, No Iterations 3
DILUPBiCGStab:  Solving for H2O, Initial residual = 0.00288448, Final residual = 2.68066e-09, No Iterations 3
DILUPBiCGStab:  Solving for CH4, Initial residual = 0, Final residual = 0, No Iterations 0
DILUPBiCGStab:  Solving for CO2, Initial residual = 0.00288448, Final residual = 2.68066e-09, No Iterations 3
DILUPBiCGStab:  Solving for h, Initial residual = 0.00322581, Final residual = 2.86222e-09, No Iterations 3
min/max(T) = 299.544, 1044.97
GAMGPCG:  Solving for p_rgh, Initial residual = 0.0203422, Final residual = 2.50484e-07, No Iterations 5
diagonal:  Solving for rho, Initial residual = 0, Final residual = 0, No Iterations 0
time step continuity errors : sum local = 1.0838e-08, global = 7.387e-10, cumulative = -1.4686e-07
GAMGPCG:  Solving for p_rgh, Initial residual = 0.00308781, Final residual = 4.21686e-07, No Iterations 4
diagonal:  Solving for rho, Initial residual = 0, Final residual = 0, No Iterations 0
time step continuity errors : sum local = 1.71361e-08, global = 1.20585e-09, cumulative = -1.45654e-07
[...]

Execution time for mesh.update() = 0 s

DILUPBiCGStab:  Solving for Ux, Initial residual = 0.00433445, Final residual = 7.57448e-09, No Iterations 3
DILUPBiCGStab:  Solving for Uy, Initial residual = 0.00365062, Final residual = 4.97262e-09, No Iterations 3
GAMGPCG:  Solving for G, Initial residual = 0.209115, Final residual = 4.40064e-05, No Iterations 6
DILUPBiCGStab:  Solving for O2, Initial residual = 0.00181771, Final residual = 7.95391e-10, No Iterations 3
DILUPBiCGStab:  Solving for H2O, Initial residual = 0.00181771, Final residual = 7.95392e-10, No Iterations 3
DILUPBiCGStab:  Solving for CH4, Initial residual = 0, Final residual = 0, No Iterations 0
DILUPBiCGStab:  Solving for CO2, Initial residual = 0.00181771, Final residual = 7.95392e-10, No Iterations 3
DILUPBiCGStab:  Solving for h, Initial residual = 0.00214819, Final residual = 5.48193e-09, No Iterations 3
min/max(T) = 300, 1044.97
GAMGPCG:  Solving for p_rgh, Initial residual = 0.0221004, Final residual = 1.18043e-07, No Iterations 5
diagonal:  Solving for rho, Initial residual = 0, Final residual = 0, No Iterations 0
time step continuity errors : sum local = 3.19604e-09, global = -3.27443e-10, cumulative = 8.52e-07
GAMGPCG:  Solving for p_rgh, Initial residual = 0.00382184, Final residual = 3.96194e-07, No Iterations 4
diagonal:  Solving for rho, Initial residual = 0, Final residual = 0, No Iterations 0
time step continuity errors : sum local = 1.07188e-08, global = 8.95e-10, cumulative = 8.52895e-07
DILUPBiCGStab:  Solving for omega, Initial residual = 7.89763e-05, Final residual = 1.01027e-09, No Iterations 2
DILUPBiCGStab:  Solving for k, Initial residual = 0.00333018, Final residual = 7.28145e-09, No Iterations 3

ExecutionTime = 290.35 s  ClockTime = 290 s

    Overall     = 0.00129191, 0.01
Time = 2491

diagonal:  Solving for rho, Initial residual = 0, Final residual = 0, No Iterations 0

Execution time for mesh.update() = 0 s

DILUPBiCGStab:  Solving for Ux, Initial residual = 0.00432423, Final residual = 7.70106e-09, No Iterations 3
DILUPBiCGStab:  Solving for Uy, Initial residual = 0.00368635, Final residual = 5.47865e-09, No Iterations 3
DILUPBiCGStab:  Solving for O2, Initial residual = 0.00180078, Final residual = 1.53824e-09, No Iterations 3
DILUPBiCGStab:  Solving for H2O, Initial residual = 0.00180078, Final residual = 1.53824e-09, No Iterations 3
DILUPBiCGStab:  Solving for CH4, Initial residual = 0, Final residual = 0, No Iterations 0
DILUPBiCGStab:  Solving for CO2, Initial residual = 0.00180078, Final residual = 1.53824e-09, No Iterations 3
DILUPBiCGStab:  Solving for h, Initial residual = 0.00213064, Final residual = 1.61544e-09, No Iterations 3
min/max(T) = 300, 1044.97
GAMGPCG:  Solving for p_rgh, Initial residual = 0.0230218, Final residual = 1.23452e-07, No Iterations 5
diagonal:  Solving for rho, Initial residual = 0, Final residual = 0, No Iterations 0
time step continuity errors : sum local = 3.33214e-09, global = -3.1612e-10, cumulative = 8.52579e-07
GAMGPCG:  Solving for p_rgh, Initial residual = 0.00375387, Final residual = 3.95395e-07, No Iterations 4
diagonal:  Solving for rho, Initial residual = 0, Final residual = 0, No Iterations 0
time step continuity errors : sum local = 1.06405e-08, global = 8.96157e-10, cumulative = 8.53475e-07
DILUPBiCGStab:  Solving for omega, Initial residual = 7.87219e-05, Final residual = 1.05257e-09, No Iterations 2
DILUPBiCGStab:  Solving for k, Initial residual = 0.00331757, Final residual = 2.10367e-09, No Iterations 3

ExecutionTime = 290.47 s  ClockTime = 291 s

    Overall     = 0.0012902, 0.01
Time = 2492

diagonal:  Solving for rho, Initial residual = 0, Final residual = 0, No Iterations 0

Execution time for mesh.update() = 0 s

DILUPBiCGStab:  Solving for Ux, Initial residual = 0.00432872, Final residual = 6.14657e-09, No Iterations 3
DILUPBiCGStab:  Solving for Uy, Initial residual = 0.00366336, Final residual = 5.45159e-09, No Iterations 3
DILUPBiCGStab:  Solving for O2, Initial residual = 0.00180852, Final residual = 1.96195e-09, No Iterations 3
DILUPBiCGStab:  Solving for H2O, Initial residual = 0.00180852, Final residual = 1.96194e-09, No Iterations 3
DILUPBiCGStab:  Solving for CH4, Initial residual = 0, Final residual = 0, No Iterations 0
DILUPBiCGStab:  Solving for CO2, Initial residual = 0.00180852, Final residual = 1.96194e-09, No Iterations 3
DILUPBiCGStab:  Solving for h, Initial residual = 0.00213628, Final residual = 1.83263e-09, No Iterations 3
min/max(T) = 300, 1044.97
GAMGPCG:  Solving for p_rgh, Initial residual = 0.0228074, Final residual = 1.10767e-07, No Iterations 5
diagonal:  Solving for rho, Initial residual = 0, Final residual = 0, No Iterations 0
time step continuity errors : sum local = 2.98601e-09, global = -3.44939e-10, cumulative = 8.5313e-07
GAMGPCG:  Solving for p_rgh, Initial residual = 0.00387246, Final residual = 4.08556e-07, No Iterations 4
diagonal:  Solving for rho, Initial residual = 0, Final residual = 0, No Iterations 0
time step continuity errors : sum local = 1.10094e-08, global = 1.06478e-09, cumulative = 8.54195e-07
DILUPBiCGStab:  Solving for omega, Initial residual = 7.8899e-05, Final residual = 1.06519e-09, No Iterations 2
DILUPBiCGStab:  Solving for k, Initial residual = 0.00330464, Final residual = 2.01724e-09, No Iterations 3

ExecutionTime = 290.58 s  ClockTime = 291 s

    Overall     = 0.00128725, 0.01
Time = 2493

diagonal:  Solving for rho, Initial residual = 0, Final residual = 0, No Iterations 0

Execution time for mesh.update() = 0 s

DILUPBiCGStab:  Solving for Ux, Initial residual = 0.00433708, Final residual = 4.91422e-09, No Iterations 3
DILUPBiCGStab:  Solving for Uy, Initial residual = 0.00369608, Final residual = 5.77037e-09, No Iterations 3
DILUPBiCGStab:  Solving for O2, Initial residual = 0.00180185, Final residual = 2.14193e-09, No Iterations 3
DILUPBiCGStab:  Solving for H2O, Initial residual = 0.00180184, Final residual = 2.14193e-09, No Iterations 3
DILUPBiCGStab:  Solving for CH4, Initial residual = 0, Final residual = 0, No Iterations 0
DILUPBiCGStab:  Solving for CO2, Initial residual = 0.00180184, Final residual = 2.14193e-09, No Iterations 3
DILUPBiCGStab:  Solving for h, Initial residual = 0.00213015, Final residual = 1.99401e-09, No Iterations 3
min/max(T) = 300, 1044.97
GAMGPCG:  Solving for p_rgh, Initial residual = 0.0230645, Final residual = 1.31228e-07, No Iterations 5
diagonal:  Solving for rho, Initial residual = 0, Final residual = 0, No Iterations 0
time step continuity errors : sum local = 3.55398e-09, global = -2.30554e-10, cumulative = 8.53965e-07
GAMGPCG:  Solving for p_rgh, Initial residual = 0.00383814, Final residual = 4.27152e-07, No Iterations 4
diagonal:  Solving for rho, Initial residual = 0, Final residual = 0, No Iterations 0
time step continuity errors : sum local = 1.14154e-08, global = 9.8262e-10, cumulative = 8.54947e-07
DILUPBiCGStab:  Solving for omega, Initial residual = 7.85139e-05, Final residual = 1.04145e-09, No Iterations 2
DILUPBiCGStab:  Solving for k, Initial residual = 0.00327846, Final residual = 2.08458e-09, No Iterations 3

ExecutionTime = 290.7 s  ClockTime = 291 s

    Overall     = 0.00128313, 0.01
Time = 2494

diagonal:  Solving for rho, Initial residual = 0, Final residual = 0, No Iterations 0

Execution time for mesh.update() = 0 s

DILUPBiCGStab:  Solving for Ux, Initial residual = 0.00432346, Final residual = 3.9653e-09, No Iterations 3
DILUPBiCGStab:  Solving for Uy, Initial residual = 0.00366096, Final residual = 5.80805e-09, No Iterations 3
DILUPBiCGStab:  Solving for O2, Initial residual = 0.00179081, Final residual = 1.8487e-09, No Iterations 3
DILUPBiCGStab:  Solving for H2O, Initial residual = 0.00179081, Final residual = 1.8487e-09, No Iterations 3
DILUPBiCGStab:  Solving for CH4, Initial residual = 0, Final residual = 0, No Iterations 0
DILUPBiCGStab:  Solving for CO2, Initial residual = 0.00179081, Final residual = 1.8487e-09, No Iterations 3
DILUPBiCGStab:  Solving for h, Initial residual = 0.00211389, Final residual = 1.80829e-09, No Iterations 3
min/max(T) = 300, 1044.97
GAMGPCG:  Solving for p_rgh, Initial residual = 0.0235513, Final residual = 1.20465e-07, No Iterations 5
diagonal:  Solving for rho, Initial residual = 0, Final residual = 0, No Iterations 0
time step continuity errors : sum local = 3.2533e-09, global = -2.50443e-10, cumulative = 8.54697e-07
GAMGPCG:  Solving for p_rgh, Initial residual = 0.00405425, Final residual = 4.00614e-07, No Iterations 4
diagonal:  Solving for rho, Initial residual = 0, Final residual = 0, No Iterations 0
time step continuity errors : sum local = 1.07337e-08, global = 8.93575e-10, cumulative = 8.5559e-07
DILUPBiCGStab:  Solving for omega, Initial residual = 7.97256e-05, Final residual = 1.01846e-09, No Iterations 2
DILUPBiCGStab:  Solving for k, Initial residual = 0.00327618, Final residual = 2.22247e-09, No Iterations 3

ExecutionTime = 290.82 s  ClockTime = 291 s

    Overall     = 0.0012804, 0.01
Time = 2495

diagonal:  Solving for rho, Initial residual = 0, Final residual = 0, No Iterations 0

Execution time for mesh.update() = 0 s

DILUPBiCGStab:  Solving for Ux, Initial residual = 0.00432481, Final residual = 3.7202e-09, No Iterations 3
DILUPBiCGStab:  Solving for Uy, Initial residual = 0.00369985, Final residual = 5.77945e-09, No Iterations 3
DILUPBiCGStab:  Solving for O2, Initial residual = 0.00178561, Final residual = 1.61799e-09, No Iterations 3
DILUPBiCGStab:  Solving for H2O, Initial residual = 0.00178561, Final residual = 1.61799e-09, No Iterations 3
DILUPBiCGStab:  Solving for CH4, Initial residual = 0, Final residual = 0, No Iterations 0
DILUPBiCGStab:  Solving for CO2, Initial residual = 0.00178561, Final residual = 1.61799e-09, No Iterations 3
DILUPBiCGStab:  Solving for h, Initial residual = 0.0021062, Final residual = 1.67857e-09, No Iterations 3
min/max(T) = 300, 1044.97
GAMGPCG:  Solving for p_rgh, Initial residual = 0.0225461, Final residual = 1.53411e-07, No Iterations 5
diagonal:  Solving for rho, Initial residual = 0, Final residual = 0, No Iterations 0
time step continuity errors : sum local = 4.19584e-09, global = 2.43875e-11, cumulative = 8.55615e-07
GAMGPCG:  Solving for p_rgh, Initial residual = 0.00401672, Final residual = 4.52238e-07, No Iterations 4
diagonal:  Solving for rho, Initial residual = 0, Final residual = 0, No Iterations 0
time step continuity errors : sum local = 1.21195e-08, global = 7.15158e-10, cumulative = 8.5633e-07
DILUPBiCGStab:  Solving for omega, Initial residual = 7.81271e-05, Final residual = 9.82381e-10, No Iterations 2
DILUPBiCGStab:  Solving for k, Initial residual = 0.00325328, Final residual = 2.02249e-09, No Iterations 3

ExecutionTime = 290.94 s  ClockTime = 291 s

    Overall     = 0.00127707, 0.01
Time = 2496

diagonal:  Solving for rho, Initial residual = 0, Final residual = 0, No Iterations 0

Execution time for mesh.update() = 0 s

DILUPBiCGStab:  Solving for Ux, Initial residual = 0.00427976, Final residual = 3.59156e-09, No Iterations 3
DILUPBiCGStab:  Solving for Uy, Initial residual = 0.00364438, Final residual = 5.44191e-09, No Iterations 3
DILUPBiCGStab:  Solving for O2, Initial residual = 0.00178123, Final residual = 1.63682e-09, No Iterations 3
DILUPBiCGStab:  Solving for H2O, Initial residual = 0.00178123, Final residual = 1.63682e-09, No Iterations 3
DILUPBiCGStab:  Solving for CH4, Initial residual = 0, Final residual = 0, No Iterations 0
DILUPBiCGStab:  Solving for CO2, Initial residual = 0.00178123, Final residual = 1.63682e-09, No Iterations 3
DILUPBiCGStab:  Solving for h, Initial residual = 0.00209652, Final residual = 1.72277e-09, No Iterations 3
min/max(T) = 300, 1044.97
GAMGPCG:  Solving for p_rgh, Initial residual = 0.0229084, Final residual = 1.78802e-07, No Iterations 5
diagonal:  Solving for rho, Initial residual = 0, Final residual = 0, No Iterations 0
time step continuity errors : sum local = 4.87023e-09, global = 1.89849e-10, cumulative = 8.5652e-07
GAMGPCG:  Solving for p_rgh, Initial residual = 0.00384559, Final residual = 4.53405e-07, No Iterations 4
diagonal:  Solving for rho, Initial residual = 0, Final residual = 0, No Iterations 0
time step continuity errors : sum local = 1.19761e-08, global = 4.25373e-10, cumulative = 8.56945e-07
DILUPBiCGStab:  Solving for omega, Initial residual = 7.91141e-05, Final residual = 1.03117e-09, No Iterations 2
DILUPBiCGStab:  Solving for k, Initial residual = 0.00324631, Final residual = 1.83416e-09, No Iterations 3

ExecutionTime = 291.06 s  ClockTime = 291 s

    Overall     = 0.00127571, 0.01
Time = 2497

diagonal:  Solving for rho, Initial residual = 0, Final residual = 0, No Iterations 0

Execution time for mesh.update() = 0 s

DILUPBiCGStab:  Solving for Ux, Initial residual = 0.00429699, Final residual = 3.73628e-09, No Iterations 3
DILUPBiCGStab:  Solving for Uy, Initial residual = 0.00366478, Final residual = 5.2525e-09, No Iterations 3
DILUPBiCGStab:  Solving for O2, Initial residual = 0.00177759, Final residual = 1.76953e-09, No Iterations 3
DILUPBiCGStab:  Solving for H2O, Initial residual = 0.00177759, Final residual = 1.76954e-09, No Iterations 3
DILUPBiCGStab:  Solving for CH4, Initial residual = 0, Final residual = 0, No Iterations 0
DILUPBiCGStab:  Solving for CO2, Initial residual = 0.00177759, Final residual = 1.76954e-09, No Iterations 3
DILUPBiCGStab:  Solving for h, Initial residual = 0.00209108, Final residual = 1.88514e-09, No Iterations 3
min/max(T) = 300, 1044.97
GAMGPCG:  Solving for p_rgh, Initial residual = 0.0225791, Final residual = 1.92689e-07, No Iterations 5
diagonal:  Solving for rho, Initial residual = 0, Final residual = 0, No Iterations 0
time step continuity errors : sum local = 5.26949e-09, global = 1.60585e-10, cumulative = 8.57106e-07
GAMGPCG:  Solving for p_rgh, Initial residual = 0.00397431, Final residual = 4.35938e-07, No Iterations 4
diagonal:  Solving for rho, Initial residual = 0, Final residual = 0, No Iterations 0
time step continuity errors : sum local = 1.17557e-08, global = 4.68528e-10, cumulative = 8.57574e-07
DILUPBiCGStab:  Solving for omega, Initial residual = 7.80731e-05, Final residual = 9.51096e-10, No Iterations 2
DILUPBiCGStab:  Solving for k, Initial residual = 0.00323649, Final residual = 1.72159e-09, No Iterations 3

ExecutionTime = 291.18 s  ClockTime = 291 s

    Overall     = 0.00127284, 0.01
Time = 2498

diagonal:  Solving for rho, Initial residual = 0, Final residual = 0, No Iterations 0

Execution time for mesh.update() = 0 s

DILUPBiCGStab:  Solving for Ux, Initial residual = 0.00426531, Final residual = 3.72075e-09, No Iterations 3
DILUPBiCGStab:  Solving for Uy, Initial residual = 0.00364776, Final residual = 5.14188e-09, No Iterations 3
DILUPBiCGStab:  Solving for O2, Initial residual = 0.00176635, Final residual = 1.88006e-09, No Iterations 3
DILUPBiCGStab:  Solving for H2O, Initial residual = 0.00176635, Final residual = 1.88007e-09, No Iterations 3
DILUPBiCGStab:  Solving for CH4, Initial residual = 0, Final residual = 0, No Iterations 0
DILUPBiCGStab:  Solving for CO2, Initial residual = 0.00176635, Final residual = 1.88007e-09, No Iterations 3
DILUPBiCGStab:  Solving for h, Initial residual = 0.0020766, Final residual = 2.01809e-09, No Iterations 3
min/max(T) = 300, 1044.97
GAMGPCG:  Solving for p_rgh, Initial residual = 0.022871, Final residual = 2.19058e-07, No Iterations 5
diagonal:  Solving for rho, Initial residual = 0, Final residual = 0, No Iterations 0
time step continuity errors : sum local = 6.00354e-09, global = -4.80666e-11, cumulative = 8.57526e-07
GAMGPCG:  Solving for p_rgh, Initial residual = 0.00373141, Final residual = 4.69741e-07, No Iterations 4
diagonal:  Solving for rho, Initial residual = 0, Final residual = 0, No Iterations 0
time step continuity errors : sum local = 1.26269e-08, global = 3.21413e-10, cumulative = 8.57847e-07
DILUPBiCGStab:  Solving for omega, Initial residual = 7.72216e-05, Final residual = 9.93827e-10, No Iterations 2
DILUPBiCGStab:  Solving for k, Initial residual = 0.00321894, Final residual = 1.71248e-09, No Iterations 3

ExecutionTime = 291.29 s  ClockTime = 291 s

    Overall     = 0.00127189, 0.01
Time = 2499

diagonal:  Solving for rho, Initial residual = 0, Final residual = 0, No Iterations 0

Execution time for mesh.update() = 0 s

DILUPBiCGStab:  Solving for Ux, Initial residual = 0.00427185, Final residual = 3.94907e-09, No Iterations 3
DILUPBiCGStab:  Solving for Uy, Initial residual = 0.00366265, Final residual = 4.88304e-09, No Iterations 3
DILUPBiCGStab:  Solving for O2, Initial residual = 0.00177531, Final residual = 1.91717e-09, No Iterations 3
DILUPBiCGStab:  Solving for H2O, Initial residual = 0.00177531, Final residual = 1.91718e-09, No Iterations 3
DILUPBiCGStab:  Solving for CH4, Initial residual = 0, Final residual = 0, No Iterations 0
DILUPBiCGStab:  Solving for CO2, Initial residual = 0.00177531, Final residual = 1.91718e-09, No Iterations 3
DILUPBiCGStab:  Solving for h, Initial residual = 0.00208734, Final residual = 2.10535e-09, No Iterations 3
min/max(T) = 300, 1044.97
GAMGPCG:  Solving for p_rgh, Initial residual = 0.0232599, Final residual = 2.11538e-07, No Iterations 5
diagonal:  Solving for rho, Initial residual = 0, Final residual = 0, No Iterations 0
time step continuity errors : sum local = 5.86451e-09, global = -1.61008e-10, cumulative = 8.57686e-07
GAMGPCG:  Solving for p_rgh, Initial residual = 0.00410072, Final residual = 4.67825e-07, No Iterations 4
diagonal:  Solving for rho, Initial residual = 0, Final residual = 0, No Iterations 0
time step continuity errors : sum local = 1.27219e-08, global = 5.18867e-10, cumulative = 8.58205e-07
DILUPBiCGStab:  Solving for omega, Initial residual = 7.99782e-05, Final residual = 1.01944e-09, No Iterations 2
DILUPBiCGStab:  Solving for k, Initial residual = 0.00325063, Final residual = 1.78208e-09, No Iterations 3

ExecutionTime = 291.41 s  ClockTime = 292 s

    Overall     = 0.00126942, 0.01
Time = 2500

diagonal:  Solving for rho, Initial residual = 0, Final residual = 0, No Iterations 0

Execution time for mesh.update() = 0 s

DILUPBiCGStab:  Solving for Ux, Initial residual = 0.00424981, Final residual = 3.91474e-09, No Iterations 3
DILUPBiCGStab:  Solving for Uy, Initial residual = 0.00372351, Final residual = 4.37248e-09, No Iterations 3
GAMGPCG:  Solving for G, Initial residual = 0.250385, Final residual = 5.26137e-05, No Iterations 5
DILUPBiCGStab:  Solving for O2, Initial residual = 0.00179194, Final residual = 1.90889e-09, No Iterations 3
DILUPBiCGStab:  Solving for H2O, Initial residual = 0.00179194, Final residual = 1.90889e-09, No Iterations 3
DILUPBiCGStab:  Solving for CH4, Initial residual = 0, Final residual = 0, No Iterations 0
DILUPBiCGStab:  Solving for CO2, Initial residual = 0.00179194, Final residual = 1.90889e-09, No Iterations 3
DILUPBiCGStab:  Solving for h, Initial residual = 0.00210636, Final residual = 2.09577e-09, No Iterations 3
min/max(T) = 300, 1044.97
GAMGPCG:  Solving for p_rgh, Initial residual = 0.023841, Final residual = 9.81321e-07, No Iterations 4
diagonal:  Solving for rho, Initial residual = 0, Final residual = 0, No Iterations 0
time step continuity errors : sum local = 2.73754e-08, global = -4.32451e-10, cumulative = 8.57773e-07
GAMGPCG:  Solving for p_rgh, Initial residual = 0.00384297, Final residual = 4.2703e-07, No Iterations 4
diagonal:  Solving for rho, Initial residual = 0, Final residual = 0, No Iterations 0
time step continuity errors : sum local = 1.16141e-08, global = 4.24209e-10, cumulative = 8.58197e-07
DILUPBiCGStab:  Solving for omega, Initial residual = 8.02466e-05, Final residual = 1.09339e-09, No Iterations 2
DILUPBiCGStab:  Solving for k, Initial residual = 0.00322176, Final residual = 1.79293e-09, No Iterations 3

ExecutionTime = 291.66 s  ClockTime = 292 s


Patch Mean : 301.892
Patch Variance : 0.00104223
Patch Gradient : 0.131748
End
