/*---------------------------------------------------------------------------*\
  =========                 |
  \\      /  F ield         | OpenFOAM: The Open Source CFD Toolbox
   \\    /   O peration     | Website:  https://openfoam.org
    \\  /    A nd           | Version:  dev
     \\/     M anipulation  |
\*---------------------------------------------------------------------------*/
Build  : dev-cabe48fb62c1
Exec   : fireDyMFoam
Date   : Apr 15 2019
Time   : 11:52:10
Host   : "Host"
PID    : 30425
I/O    : uncollated
Case   : /home/tesla/OpenFOAM/tesla-dev/run/rollerOpt_COBYLA_NEW
nProcs : 1
sigFpe : Enabling floating point exception trapping (FOAM_SIGFPE).
fileModificationChecking : Monitoring run-time modified files using timeStampMaster (fileModificationSkew 10)
allowSystemOperations : Allowing user-supplied system call operations

// * * * * * * * * * * * * * * * * * * * * * * * * * * * * * * * * * * * * * //
Create time

--> FOAM Warning : 
    From function void* Foam::dlOpen(const Foam::fileName&, bool)
    in file POSIX.C at line 1268
    dlopen error : libgroovyBC.so: cannot open shared object file: No such file or directory
--> FOAM Warning : 
    From function bool Foam::dlLibraryTable::open(const Foam::fileName&, bool)
    in file db/dynamicLibrary/dlLibraryTable/dlLibraryTable.C at line 105
    could not load "libgroovyBC.so"
Create mesh for time = 250

Selecting dynamicFvMesh dynamicRefineFvMesh
Detected 548 cells that are protected from refinement. Writing these to cellSet protectedCells.

PIMPLE: No convergence criteria found


PIMPLE: Operating solver in PISO mode


Initializing Solver

Selecting thermodynamics package 
{
    type            hePsiThermo;
    mixture         reactingMixture;
    transport       sutherland;
    thermo          janaf;
    energy          sensibleEnthalpy;
    equationOfState perfectGas;
    specie          specie;
}

Selecting chemistryReader foamChemistryReader
    elements not defined in "/home/tesla/OpenFOAM/tesla-dev/run/rollerOpt_COBYLA_NEW/constant/reactions"
Reading/calculating face flux field phi

No MRF models present

Selecting turbulence model type RAS
Selecting RAS turbulence model kOmegaSST
Selecting patchDistMethod meshWave
kOmegaSSTCoeffs
{
    delta           cubeRootVol;
    cubeRootVolCoeffs
    {
        deltaCoeff      1;
    }
    alphaK1         0.85;
    alphaK2         1;
    alphaOmega1     0.5;
    alphaOmega2     0.856;
    gamma1          0.555556;
    gamma2          0.44;
    beta1           0.075;
    beta2           0.0828;
    betaStar        0.09;
    a1              0.31;
    b1              1;
    c1              10;
    F3              false;
}

Selecting combustion model none<psiThermoCombustion>
--> FOAM Warning : 
    From function static Foam::autoPtr<T> Foam::combustionModel::New(typename CombustionModel::reactionThermo&, const Foam::compressibleTurbulenceModel&, const Foam::word&) [with CombustionModel = Foam::CombustionModel<Foam::psiReactionThermo>; typename CombustionModel::reactionThermo = Foam::psiReactionThermo]
    in file /home/tesla/OpenFOAM/OpenFOAM-dev/src/combustionModels/lnInclude/combustionModelTemplates.C at line 69
    Template parameters are no longer required when selecting a combustionModel. This information is now obtained directly from the thermodynamics. Actually selecting combustion model none.

Reading g

Reading hRef
Calculating field g.h


Reading pRef
Selecting radiationModel P1
Selecting absorptionEmissionModel greyMeanAbsorptionEmission
Selecting scatterModel none
Selecting sootModel none
Creating finite volume options from "system/fvOptions"

No finite volume options present
Using LTS

Starting time loop

Using dynamicCode for functionObject patchCalcs at line 64 in "/home/tesla/OpenFOAM/tesla-dev/run/rollerOpt_COBYLA_NEW/system/controlDict.functions.patchCalcs"
    Overall     = 0.00185614, 0.01
Time = 251

diagonal:  Solving for rho, Initial residual = 0, Final residual = 0, No Iterations 0

Execution time for mesh.update() = 0 s

DILUPBiCGStab:  Solving for Ux, Initial residual = 0.00711196, Final residual = 7.97839e-09, No Iterations 3
DILUPBiCGStab:  Solving for Uy, Initial residual = 0.00805598, Final residual = 8.41431e-09, No Iterations 3
GAMGPCG:  Solving for G, Initial residual = 0.0278848, Final residual = 9.98022e-05, No Iterations 3
DILUPBiCGStab:  Solving for O2, Initial residual = 0.00423729, Final residual = 4.52548e-09, No Iterations 3
DILUPBiCGStab:  Solving for H2O, Initial residual = 0.00423724, Final residual = 4.5259e-09, No Iterations 3
DILUPBiCGStab:  Solving for CH4, Initial residual = 0, Final residual = 0, No Iterations 0
DILUPBiCGStab:  Solving for CO2, Initial residual = 0.00423725, Final residual = 4.52596e-09, No Iterations 3
DILUPBiCGStab:  Solving for h, Initial residual = 0.00480358, Final residual = 4.30232e-09, No Iterations 3
min/max(T) = 300, 1045.04
GAMGPCG:  Solving for p_rgh, Initial residual = 0.0186678, Final residual = 2.39895e-07, No Iterations 5
diagonal:  Solving for rho, Initial residual = 0, Final residual = 0, No Iterations 0
time step continuity errors : sum local = 2.45973e-06, global = -9.12389e-08, cumulative = -9.12389e-08
GAMGPCG:  Solving for p_rgh, Initial residual = 0.00279189, Final residual = 2.0453e-07, No Iterations 4
diagonal:  Solving for rho, Initial residual = 0, Final residual = 0, No Iterations 0
time step continuity errors : sum local = 2.46017e-06, global = -9.02621e-08, cumulative = -1.81501e-07
DILUPBiCGStab:  Solving for omega, Initial residual = 0.000161909, Final residual = 2.18611e-09, No Iterations 2
DILUPBiCGStab:  Solving for k, Initial residual = 0.0101001, Final residual = 4.46129e-09, No Iterations 3

ExecutionTime = 0.38 s  ClockTime = 0 s

    Overall     = 0.00185953, 0.01
Time = 252

diagonal:  Solving for rho, Initial residual = 0, Final residual = 0, No Iterations 0

Execution time for mesh.update() = 0 s

DILUPBiCGStab:  Solving for Ux, Initial residual = 0.00709231, Final residual = 7.62705e-09, No Iterations 3
DILUPBiCGStab:  Solving for Uy, Initial residual = 0.00806545, Final residual = 8.82715e-09, No Iterations 3
DILUPBiCGStab:  Solving for O2, Initial residual = 0.00424487, Final residual = 4.40076e-09, No Iterations 3
DILUPBiCGStab:  Solving for H2O, Initial residual = 0.00424487, Final residual = 4.40082e-09, No Iterations 3
DILUPBiCGStab:  Solving for CH4, Initial residual = 0, Final residual = 0, No Iterations 0
DILUPBiCGStab:  Solving for CO2, Initial residual = 0.00424487, Final residual = 4.4008e-09, No Iterations 3
DILUPBiCGStab:  Solving for h, Initial residual = 0.00481573, Final residual = 4.19922e-09, No Iterations 3
min/max(T) = 300, 1045.04
GAMGPCG:  Solving for p_rgh, Initial residual = 0.0190532, Final residual = 2.04841e-07, No Iterations 5
diagonal:  Solving for rho, Initial residual = 0, Final residual = 0, No Iterations 0
time step continuity errors : sum local = 1.61401e-08, global = 5.27791e-11, cumulative = -1.81448e-07
GAMGPCG:  Solving for p_rgh, Initial residual = 0.00272079, Final residual = 2.01542e-07, No Iterations 4
diagonal:  Solving for rho, Initial residual = 0, Final residual = 0, No Iterations 0
time step continuity errors : sum local = 1.61107e-08, global = 1.92283e-09, cumulative = -1.79525e-07
DILUPBiCGStab:  Solving for omega, Initial residual = 0.00016206, Final residual = 2.20756e-09, No Iterations 2
DILUPBiCGStab:  Solving for k, Initial residual = 0.010114, Final residual = 4.36703e-09, No Iterations 3

ExecutionTime = 0.5 s  ClockTime = 0 s

    Overall     = 0.00186682, 0.01
Time = 253

diagonal:  Solving for rho, Initial residual = 0, Final residual = 0, No Iterations 0

Execution time for mesh.update() = 0 s

DILUPBiCGStab:  Solving for Ux, Initial residual = 0.00708235, Final residual = 7.97588e-09, No Iterations 3
DILUPBiCGStab:  Solving for Uy, Initial residual = 0.00806348, Final residual = 8.72743e-09, No Iterations 3
DILUPBiCGStab:  Solving for O2, Initial residual = 0.00424727, Final residual = 4.43561e-09, No Iterations 3
DILUPBiCGStab:  Solving for H2O, Initial residual = 0.00424727, Final residual = 4.43566e-09, No Iterations 3
DILUPBiCGStab:  Solving for CH4, Initial residual = 0, Final residual = 0, No Iterations 0
DILUPBiCGStab:  Solving for CO2, Initial residual = 0.00424728, Final residual = 4.4357e-09, No Iterations 3
DILUPBiCGStab:  Solving for h, Initial residual = 0.00481773, Final residual = 4.35912e-09, No Iterations 3
min/max(T) = 300, 1045.04
GAMGPCG:  Solving for p_rgh, Initial residual = 0.0184282, Final residual = 1.95586e-07, No Iterations 5
diagonal:  Solving for rho, Initial residual = 0, Final residual = 0, No Iterations 0
time step continuity errors : sum local = 1.52387e-08, global = 1.19686e-10, cumulative = -1.79406e-07
GAMGPCG:  Solving for p_rgh, Initial residual = 0.00276042, Final residual = 2.09281e-07, No Iterations 4
diagonal:  Solving for rho, Initial residual = 0, Final residual = 0, No Iterations 0
time step continuity errors : sum local = 1.66301e-08, global = 1.82408e-09, cumulative = -1.77582e-07
DILUPBiCGStab:  Solving for omega, Initial residual = 0.000163226, Final residual = 2.27465e-09, No Iterations 2
DILUPBiCGStab:  Solving for k, Initial residual = 0.0101364, Final residual = 5.04917e-09, No Iterations 3

ExecutionTime = 0.62 s  ClockTime = 0 s

    Overall     = 0.00187396, 0.01
Time = 254

diagonal:  Solving for rho, Initial residual = 0, Final residual = 0, No Iterations 0

Execution time for mesh.update() = 0 s

DILUPBiCGStab:  Solving for Ux, Initial residual = 0.00704819, Final residual = 7.59393e-09, No Iterations 3
DILUPBiCGStab:  Solving for Uy, Initial residual = 0.00802243, Final residual = 8.7392e-09, No Iterations 3
DILUPBiCGStab:  Solving for O2, Initial residual = 0.0042602, Final residual = 4.69717e-09, No Iterations 3
DILUPBiCGStab:  Solving for H2O, Initial residual = 0.0042602, Final residual = 4.69708e-09, No Iterations 3
DILUPBiCGStab:  Solving for CH4, Initial residual = 0, Final residual = 0, No Iterations 0
DILUPBiCGStab:  Solving for CO2, Initial residual = 0.0042602, Final residual = 4.69717e-09, No Iterations 3
DILUPBiCGStab:  Solving for h, Initial residual = 0.00483328, Final residual = 4.58903e-09, No Iterations 3
min/max(T) = 300, 1045.04
GAMGPCG:  Solving for p_rgh, Initial residual = 0.0191383, Final residual = 1.90034e-07, No Iterations 5
diagonal:  Solving for rho, Initial residual = 0, Final residual = 0, No Iterations 0
time step continuity errors : sum local = 1.48962e-08, global = -4.15562e-10, cumulative = -1.77997e-07
GAMGPCG:  Solving for p_rgh, Initial residual = 0.00259705, Final residual = 2.27819e-07, No Iterations 4
diagonal:  Solving for rho, Initial residual = 0, Final residual = 0, No Iterations 0
time step continuity errors : sum local = 1.79755e-08, global = 1.88189e-09, cumulative = -1.76115e-07
DILUPBiCGStab:  Solving for omega, Initial residual = 0.000162037, Final residual = 2.34183e-09, No Iterations 2
DILUPBiCGStab:  Solving for k, Initial residual = 0.0101451, Final residual = 5.848e-09, No Iterations 3

ExecutionTime = 0.74 s  ClockTime = 1 s

    Overall     = 0.00188282, 0.01
Time = 255

diagonal:  Solving for rho, Initial residual = 0, Final residual = 0, No Iterations 0

Execution time for mesh.update() = 0 s

DILUPBiCGStab:  Solving for Ux, Initial residual = 0.00703491, Final residual = 7.94022e-09, No Iterations 3
DILUPBiCGStab:  Solving for Uy, Initial residual = 0.00804908, Final residual = 8.72799e-09, No Iterations 3
DILUPBiCGStab:  Solving for O2, Initial residual = 0.00425858, Final residual = 4.64375e-09, No Iterations 3
DILUPBiCGStab:  Solving for H2O, Initial residual = 0.00425859, Final residual = 4.64368e-09, No Iterations 3
DILUPBiCGStab:  Solving for CH4, Initial residual = 0, Final residual = 0, No Iterations 0
DILUPBiCGStab:  Solving for CO2, Initial residual = 0.00425859, Final residual = 4.64373e-09, No Iterations 3
DILUPBiCGStab:  Solving for h, Initial residual = 0.00483289, Final residual = 4.42738e-09, No Iterations 3
min/max(T) = 300, 1045.04
GAMGPCG:  Solving for p_rgh, Initial residual = 0.019197, Final residual = 1.97885e-07, No Iterations 5
diagonal:  Solving for rho, Initial residual = 0, Final residual = 0, No Iterations 0
time step continuity errors : sum local = 1.55068e-08, global = -1.59303e-10, cumulative = -1.76275e-07
GAMGPCG:  Solving for p_rgh, Initial residual = 0.00269813, Final residual = 2.34227e-07, No Iterations 4
diagonal:  Solving for rho, Initial residual = 0, Final residual = 0, No Iterations 0
time step continuity errors : sum local = 1.85826e-08, global = 1.93573e-09, cumulative = -1.74339e-07
DILUPBiCGStab:  Solving for omega, Initial residual = 0.000162688, Final residual = 2.33276e-09, No Iterations 2
DILUPBiCGStab:  Solving for k, Initial residual = 0.0101799, Final residual = 5.27922e-09, No Iterations 3

ExecutionTime = 0.86 s  ClockTime = 1 s

    Overall     = 0.00189096, 0.01
Time = 256

diagonal:  Solving for rho, Initial residual = 0, Final residual = 0, No Iterations 0

Execution time for mesh.update() = 0 s

DILUPBiCGStab:  Solving for Ux, Initial residual = 0.00702021, Final residual = 8.1734e-09, No Iterations 3
DILUPBiCGStab:  Solving for Uy, Initial residual = 0.00803324, Final residual = 8.98844e-09, No Iterations 3
DILUPBiCGStab:  Solving for O2, Initial residual = 0.00426386, Final residual = 4.63862e-09, No Iterations 3
DILUPBiCGStab:  Solving for H2O, Initial residual = 0.00426387, Final residual = 4.63869e-09, No Iterations 3
DILUPBiCGStab:  Solving for CH4, Initial residual = 0, Final residual = 0, No Iterations 0
DILUPBiCGStab:  Solving for CO2, Initial residual = 0.00426387, Final residual = 4.6387e-09, No Iterations 3
DILUPBiCGStab:  Solving for h, Initial residual = 0.00484058, Final residual = 4.4311e-09, No Iterations 3
min/max(T) = 300, 1045.04
GAMGPCG:  Solving for p_rgh, Initial residual = 0.019075, Final residual = 1.7277e-07, No Iterations 5
diagonal:  Solving for rho, Initial residual = 0, Final residual = 0, No Iterations 0
time step continuity errors : sum local = 1.35304e-08, global = -4.58306e-10, cumulative = -1.74797e-07
GAMGPCG:  Solving for p_rgh, Initial residual = 0.00274073, Final residual = 2.43778e-07, No Iterations 4
diagonal:  Solving for rho, Initial residual = 0, Final residual = 0, No Iterations 0
time step continuity errors : sum local = 1.93076e-08, global = 1.85682e-09, cumulative = -1.7294e-07
DILUPBiCGStab:  Solving for omega, Initial residual = 0.000162458, Final residual = 2.31786e-09, No Iterations 2
DILUPBiCGStab:  Solving for k, Initial residual = 0.0102364, Final residual = 4.82932e-09, No Iterations 3

ExecutionTime = 0.98 s  ClockTime = 1 s

    Overall     = 0.00189937, 0.01
Time = 257

diagonal:  Solving for rho, Initial residual = 0, Final residual = 0, No Iterations 0

Execution time for mesh.update() = 0 s

DILUPBiCGStab:  Solving for Ux, Initial residual = 0.00700489, Final residual = 8.15444e-09, No Iterations 3
DILUPBiCGStab:  Solving for Uy, Initial residual = 0.00803037, Final residual = 8.49147e-09, No Iterations 3
DILUPBiCGStab:  Solving for O2, Initial residual = 0.00425983, Final residual = 4.4078e-09, No Iterations 3
DILUPBiCGStab:  Solving for H2O, Initial residual = 0.00425983, Final residual = 4.40789e-09, No Iterations 3
DILUPBiCGStab:  Solving for CH4, Initial residual = 0, Final residual = 0, No Iterations 0
DILUPBiCGStab:  Solving for CO2, Initial residual = 0.00425983, Final residual = 4.40786e-09, No Iterations 3
DILUPBiCGStab:  Solving for h, Initial residual = 0.00483576, Final residual = 4.17078e-09, No Iterations 3
min/max(T) = 300, 1045.04
GAMGPCG:  Solving for p_rgh, Initial residual = 0.0193668, Final residual = 1.88273e-07, No Iterations 5
diagonal:  Solving for rho, Initial residual = 0, Final residual = 0, No Iterations 0
time step continuity errors : sum local = 1.45978e-08, global = -4.29375e-10, cumulative = -1.7337e-07
GAMGPCG:  Solving for p_rgh, Initial residual = 0.00265752, Final residual = 2.78919e-07, No Iterations 4
diagonal:  Solving for rho, Initial residual = 0, Final residual = 0, No Iterations 0
time step continuity errors : sum local = 2.1938e-08, global = 1.82416e-09, cumulative = -1.71546e-07
DILUPBiCGStab:  Solving for omega, Initial residual = 0.000162725, Final residual = 2.20615e-09, No Iterations 2
DILUPBiCGStab:  Solving for k, Initial residual = 0.010269, Final residual = 5.61458e-09, No Iterations 3

ExecutionTime = 1.1 s  ClockTime = 1 s

    Overall     = 0.00190681, 0.01
Time = 258

diagonal:  Solving for rho, Initial residual = 0, Final residual = 0, No Iterations 0

Execution time for mesh.update() = 0 s

DILUPBiCGStab:  Solving for Ux, Initial residual = 0.00697598, Final residual = 7.84587e-09, No Iterations 3
DILUPBiCGStab:  Solving for Uy, Initial residual = 0.0080226, Final residual = 8.69705e-09, No Iterations 3
DILUPBiCGStab:  Solving for O2, Initial residual = 0.00425934, Final residual = 4.20669e-09, No Iterations 3
DILUPBiCGStab:  Solving for H2O, Initial residual = 0.00425935, Final residual = 4.20661e-09, No Iterations 3
DILUPBiCGStab:  Solving for CH4, Initial residual = 0, Final residual = 0, No Iterations 0
DILUPBiCGStab:  Solving for CO2, Initial residual = 0.00425935, Final residual = 4.20658e-09, No Iterations 3
DILUPBiCGStab:  Solving for h, Initial residual = 0.00483674, Final residual = 3.99754e-09, No Iterations 3
min/max(T) = 300, 1045.04
GAMGPCG:  Solving for p_rgh, Initial residual = 0.0196623, Final residual = 1.60213e-07, No Iterations 5
diagonal:  Solving for rho, Initial residual = 0, Final residual = 0, No Iterations 0
time step continuity errors : sum local = 1.25891e-08, global = -8.15886e-10, cumulative = -1.72361e-07
GAMGPCG:  Solving for p_rgh, Initial residual = 0.00281029, Final residual = 2.6753e-07, No Iterations 4
diagonal:  Solving for rho, Initial residual = 0, Final residual = 0, No Iterations 0
time step continuity errors : sum local = 2.11734e-08, global = 1.98284e-09, cumulative = -1.70379e-07
DILUPBiCGStab:  Solving for omega, Initial residual = 0.00016298, Final residual = 2.21222e-09, No Iterations 2
DILUPBiCGStab:  Solving for k, Initial residual = 0.010312, Final residual = 5.51566e-09, No Iterations 3

ExecutionTime = 1.22 s  ClockTime = 1 s

    Overall     = 0.0019142, 0.01
Time = 259

diagonal:  Solving for rho, Initial residual = 0, Final residual = 0, No Iterations 0

Execution time for mesh.update() = 0 s

DILUPBiCGStab:  Solving for Ux, Initial residual = 0.00695576, Final residual = 7.9067e-09, No Iterations 3
DILUPBiCGStab:  Solving for Uy, Initial residual = 0.00803225, Final residual = 8.42655e-09, No Iterations 3
DILUPBiCGStab:  Solving for O2, Initial residual = 0.0042543, Final residual = 3.94307e-09, No Iterations 3
DILUPBiCGStab:  Solving for H2O, Initial residual = 0.00425432, Final residual = 3.94305e-09, No Iterations 3
DILUPBiCGStab:  Solving for CH4, Initial residual = 0, Final residual = 0, No Iterations 0
DILUPBiCGStab:  Solving for CO2, Initial residual = 0.00425432, Final residual = 3.94302e-09, No Iterations 3
DILUPBiCGStab:  Solving for h, Initial residual = 0.00483258, Final residual = 3.72449e-09, No Iterations 3
min/max(T) = 300, 1045.04
GAMGPCG:  Solving for p_rgh, Initial residual = 0.0193807, Final residual = 1.63293e-07, No Iterations 5
diagonal:  Solving for rho, Initial residual = 0, Final residual = 0, No Iterations 0
time step continuity errors : sum local = 1.2814e-08, global = -9.95481e-10, cumulative = -1.71374e-07
GAMGPCG:  Solving for p_rgh, Initial residual = 0.00280015, Final residual = 2.97126e-07, No Iterations 4
diagonal:  Solving for rho, Initial residual = 0, Final residual = 0, No Iterations 0
time step continuity errors : sum local = 2.31896e-08, global = 2.29985e-09, cumulative = -1.69074e-07
DILUPBiCGStab:  Solving for omega, Initial residual = 0.000163786, Final residual = 2.13851e-09, No Iterations 2
DILUPBiCGStab:  Solving for k, Initial residual = 0.0103535, Final residual = 5.46149e-09, No Iterations 3

ExecutionTime = 1.34 s  ClockTime = 1 s

    Overall     = 0.00191998, 0.01
Time = 260

diagonal:  Solving for rho, Initial residual = 0, Final residual = 0, No Iterations 0

Execution time for mesh.update() = 0 s

DILUPBiCGStab:  Solving for Ux, Initial residual = 0.00691036, Final residual = 7.62645e-09, No Iterations 3
DILUPBiCGStab:  Solving for Uy, Initial residual = 0.0079985, Final residual = 8.73364e-09, No Iterations 3
GAMGPCG:  Solving for G, Initial residual = 0.127581, Final residual = 4.00615e-05, No Iterations 6
DILUPBiCGStab:  Solving for O2, Initial residual = 0.00425654, Final residual = 3.95674e-09, No Iterations 3
DILUPBiCGStab:  Solving for H2O, Initial residual = 0.00425655, Final residual = 3.95674e-09, No Iterations 3
DILUPBiCGStab:  Solving for CH4, Initial residual = 0, Final residual = 0, No Iterations 0
DILUPBiCGStab:  Solving for CO2, Initial residual = 0.00425655, Final residual = 3.95672e-09, No Iterations 3
DILUPBiCGStab:  Solving for h, Initial residual = 0.0048377, Final residual = 3.82267e-09, No Iterations 3
min/max(T) = 300, 1045.04
GAMGPCG:  Solving for p_rgh, Initial residual = 0.0198529, Final residual = 1.54541e-07, No Iterations 5
diagonal:  Solving for rho, Initial residual = 0, Final residual = 0, No Iterations 0
time step continuity errors : sum local = 1.22722e-08, global = -1.40408e-09, cumulative = -1.70478e-07
GAMGPCG:  Solving for p_rgh, Initial residual = 0.00284051, Final residual = 2.99687e-07, No Iterations 4
diagonal:  Solving for rho, Initial residual = 0, Final residual = 0, No Iterations 0
time step continuity errors : sum local = 2.31606e-08, global = 2.35976e-09, cumulative = -1.68119e-07
DILUPBiCGStab:  Solving for omega, Initial residual = 0.000163103, Final residual = 2.21409e-09, No Iterations 2
DILUPBiCGStab:  Solving for k, Initial residual = 0.0103808, Final residual = 5.63392e-09, No Iterations 3

ExecutionTime = 1.6 s  ClockTime = 1 s

    Overall     = 0.00192512, 0.01
Time = 261

diagonal:  Solving for rho, Initial residual = 0, Final residual = 0, No Iterations 0

Execution time for mesh.update() = 0 s

DILUPBiCGStab:  Solving for Ux, Initial residual = 0.00690132, Final residual = 7.3745e-09, No Iterations 3
DILUPBiCGStab:  Solving for Uy, Initial residual = 0.00802163, Final residual = 8.3346e-09, No Iterations 3
DILUPBiCGStab:  Solving for O2, Initial residual = 0.00425751, Final residual = 3.51784e-09, No Iterations 3
DILUPBiCGStab:  Solving for H2O, Initial residual = 0.00425752, Final residual = 3.51787e-09, No Iterations 3
DILUPBiCGStab:  Solving for CH4, Initial residual = 0, Final residual = 0, No Iterations 0
DILUPBiCGStab:  Solving for CO2, Initial residual = 0.00425752, Final residual = 3.51786e-09, No Iterations 3
DILUPBiCGStab:  Solving for h, Initial residual = 0.00483444, Final residual = 3.45534e-09, No Iterations 3
min/max(T) = 300, 1045.04
GAMGPCG:  Solving for p_rgh, Initial residual = 0.0197322, Final residual = 1.48664e-07, No Iterations 5
diagonal:  Solving for rho, Initial residual = 0, Final residual = 0, No Iterations 0
time step continuity errors : sum local = 1.18609e-08, global = -1.34691e-09, cumulative = -1.69465e-07
GAMGPCG:  Solving for p_rgh, Initial residual = 0.00293301, Final residual = 2.8211e-07, No Iterations 4
diagonal:  Solving for rho, Initial residual = 0, Final residual = 0, No Iterations 0
time step continuity errors : sum local = 2.19444e-08, global = 2.6654e-09, cumulative = -1.668e-07
DILUPBiCGStab:  Solving for omega, Initial residual = 0.000163586, Final residual = 2.30975e-09, No Iterations 2
DILUPBiCGStab:  Solving for k, Initial residual = 0.0104335, Final residual = 5.21798e-09, No Iterations 3

ExecutionTime = 1.71 s  ClockTime = 1 s

    Overall     = 0.00192864, 0.01
Time = 262

diagonal:  Solving for rho, Initial residual = 0, Final residual = 0, No Iterations 0

Execution time for mesh.update() = 0 s

DILUPBiCGStab:  Solving for Ux, Initial residual = 0.00685663, Final residual = 6.53028e-09, No Iterations 3
DILUPBiCGStab:  Solving for Uy, Initial residual = 0.00799636, Final residual = 8.19292e-09, No Iterations 3
DILUPBiCGStab:  Solving for O2, Initial residual = 0.00426257, Final residual = 3.72723e-09, No Iterations 3
DILUPBiCGStab:  Solving for H2O, Initial residual = 0.00426258, Final residual = 3.72729e-09, No Iterations 3
DILUPBiCGStab:  Solving for CH4, Initial residual = 0, Final residual = 0, No Iterations 0
DILUPBiCGStab:  Solving for CO2, Initial residual = 0.00426258, Final residual = 3.72729e-09, No Iterations 3
DILUPBiCGStab:  Solving for h, Initial residual = 0.00484186, Final residual = 3.57587e-09, No Iterations 3
min/max(T) = 300, 1045.04
GAMGPCG:  Solving for p_rgh, Initial residual = 0.0194638, Final residual = 1.65923e-07, No Iterations 5
diagonal:  Solving for rho, Initial residual = 0, Final residual = 0, No Iterations 0
time step continuity errors : sum local = 1.33598e-08, global = -1.7236e-09, cumulative = -1.68524e-07
GAMGPCG:  Solving for p_rgh, Initial residual = 0.00289801, Final residual = 3.13563e-07, No Iterations 4
diagonal:  Solving for rho, Initial residual = 0, Final residual = 0, No Iterations 0
time step continuity errors : sum local = 2.426e-08, global = 2.50343e-09, cumulative = -1.6602e-07
DILUPBiCGStab:  Solving for omega, Initial residual = 0.000163162, Final residual = 2.35695e-09, No Iterations 2
DILUPBiCGStab:  Solving for k, Initial residual = 0.0104764, Final residual = 5.02961e-09, No Iterations 3

ExecutionTime = 1.83 s  ClockTime = 2 s

    Overall     = 0.00193187, 0.01
Time = 263

diagonal:  Solving for rho, Initial residual = 0, Final residual = 0, No Iterations 0

Execution time for mesh.update() = 0 s

DILUPBiCGStab:  Solving for Ux, Initial residual = 0.00682647, Final residual = 6.3726e-09, No Iterations 3
DILUPBiCGStab:  Solving for Uy, Initial residual = 0.00798069, Final residual = 7.69417e-09, No Iterations 3
DILUPBiCGStab:  Solving for O2, Initial residual = 0.00426731, Final residual = 3.62544e-09, No Iterations 3
DILUPBiCGStab:  Solving for H2O, Initial residual = 0.00426731, Final residual = 3.6255e-09, No Iterations 3
DILUPBiCGStab:  Solving for CH4, Initial residual = 0, Final residual = 0, No Iterations 0
DILUPBiCGStab:  Solving for CO2, Initial residual = 0.00426731, Final residual = 3.6255e-09, No Iterations 3
DILUPBiCGStab:  Solving for h, Initial residual = 0.00484488, Final residual = 3.51883e-09, No Iterations 3
min/max(T) = 300, 1045.04
GAMGPCG:  Solving for p_rgh, Initial residual = 0.019444, Final residual = 1.53694e-07, No Iterations 5
diagonal:  Solving for rho, Initial residual = 0, Final residual = 0, No Iterations 0
time step continuity errors : sum local = 1.22882e-08, global = -1.64624e-09, cumulative = -1.67666e-07
GAMGPCG:  Solving for p_rgh, Initial residual = 0.00280886, Final residual = 3.35243e-07, No Iterations 4
diagonal:  Solving for rho, Initial residual = 0, Final residual = 0, No Iterations 0
time step continuity errors : sum local = 2.58672e-08, global = 2.53561e-09, cumulative = -1.65131e-07
DILUPBiCGStab:  Solving for omega, Initial residual = 0.000162515, Final residual = 2.27068e-09, No Iterations 2
DILUPBiCGStab:  Solving for k, Initial residual = 0.0105192, Final residual = 4.99279e-09, No Iterations 3

ExecutionTime = 1.95 s  ClockTime = 2 s

    Overall     = 0.00193333, 0.01
Time = 264

diagonal:  Solving for rho, Initial residual = 0, Final residual = 0, No Iterations 0

Execution time for mesh.update() = 0 s

DILUPBiCGStab:  Solving for Ux, Initial residual = 0.00680479, Final residual = 6.76739e-09, No Iterations 3
DILUPBiCGStab:  Solving for Uy, Initial residual = 0.00798471, Final residual = 8.28256e-09, No Iterations 3
DILUPBiCGStab:  Solving for O2, Initial residual = 0.00426701, Final residual = 3.5813e-09, No Iterations 3
DILUPBiCGStab:  Solving for H2O, Initial residual = 0.00426701, Final residual = 3.58134e-09, No Iterations 3
DILUPBiCGStab:  Solving for CH4, Initial residual = 0, Final residual = 0, No Iterations 0
DILUPBiCGStab:  Solving for CO2, Initial residual = 0.004267, Final residual = 3.58135e-09, No Iterations 3
DILUPBiCGStab:  Solving for h, Initial residual = 0.00484458, Final residual = 3.51699e-09, No Iterations 3
min/max(T) = 300, 1045.04
GAMGPCG:  Solving for p_rgh, Initial residual = 0.0198073, Final residual = 1.59327e-07, No Iterations 5
diagonal:  Solving for rho, Initial residual = 0, Final residual = 0, No Iterations 0
time step continuity errors : sum local = 1.28514e-08, global = -1.97597e-09, cumulative = -1.67107e-07
GAMGPCG:  Solving for p_rgh, Initial residual = 0.00296612, Final residual = 3.0728e-07, No Iterations 4
diagonal:  Solving for rho, Initial residual = 0, Final residual = 0, No Iterations 0
time step continuity errors : sum local = 2.38166e-08, global = 2.41058e-09, cumulative = -1.64696e-07
DILUPBiCGStab:  Solving for omega, Initial residual = 0.000163456, Final residual = 2.27092e-09, No Iterations 2
DILUPBiCGStab:  Solving for k, Initial residual = 0.0105484, Final residual = 4.85786e-09, No Iterations 3

ExecutionTime = 2.07 s  ClockTime = 2 s

    Overall     = 0.00193555, 0.01
Time = 265

diagonal:  Solving for rho, Initial residual = 0, Final residual = 0, No Iterations 0

Execution time for mesh.update() = 0 s

DILUPBiCGStab:  Solving for Ux, Initial residual = 0.0067849, Final residual = 6.689e-09, No Iterations 3
DILUPBiCGStab:  Solving for Uy, Initial residual = 0.00797198, Final residual = 7.3342e-09, No Iterations 3
DILUPBiCGStab:  Solving for O2, Initial residual = 0.00426187, Final residual = 3.59416e-09, No Iterations 3
DILUPBiCGStab:  Solving for H2O, Initial residual = 0.00426186, Final residual = 3.59419e-09, No Iterations 3
DILUPBiCGStab:  Solving for CH4, Initial residual = 0, Final residual = 0, No Iterations 0
DILUPBiCGStab:  Solving for CO2, Initial residual = 0.00426186, Final residual = 3.5942e-09, No Iterations 3
DILUPBiCGStab:  Solving for h, Initial residual = 0.00483917, Final residual = 3.49267e-09, No Iterations 3
min/max(T) = 300, 1045.04
GAMGPCG:  Solving for p_rgh, Initial residual = 0.019585, Final residual = 1.51193e-07, No Iterations 5
diagonal:  Solving for rho, Initial residual = 0, Final residual = 0, No Iterations 0
time step continuity errors : sum local = 1.21132e-08, global = -1.99658e-09, cumulative = -1.66693e-07
GAMGPCG:  Solving for p_rgh, Initial residual = 0.00290857, Final residual = 3.4934e-07, No Iterations 4
diagonal:  Solving for rho, Initial residual = 0, Final residual = 0, No Iterations 0
time step continuity errors : sum local = 2.66471e-08, global = 2.53665e-09, cumulative = -1.64156e-07
DILUPBiCGStab:  Solving for omega, Initial residual = 0.00016359, Final residual = 2.17021e-09, No Iterations 2
DILUPBiCGStab:  Solving for k, Initial residual = 0.0105725, Final residual = 5.04603e-09, No Iterations 3

ExecutionTime = 2.19 s  ClockTime = 2 s

    Overall     = 0.00193661, 0.01
Time = 266

diagonal:  Solving for rho, Initial residual = 0, Final residual = 0, No Iterations 0

Execution time for mesh.update() = 0 s

DILUPBiCGStab:  Solving for Ux, Initial residual = 0.00677704, Final residual = 6.31507e-09, No Iterations 3
DILUPBiCGStab:  Solving for Uy, Initial residual = 0.00794351, Final residual = 7.85552e-09, No Iterations 3
DILUPBiCGStab:  Solving for O2, Initial residual = 0.00426641, Final residual = 3.61732e-09, No Iterations 3
DILUPBiCGStab:  Solving for H2O, Initial residual = 0.00426641, Final residual = 3.61735e-09, No Iterations 3
DILUPBiCGStab:  Solving for CH4, Initial residual = 0, Final residual = 0, No Iterations 0
DILUPBiCGStab:  Solving for CO2, Initial residual = 0.00426641, Final residual = 3.61735e-09, No Iterations 3
DILUPBiCGStab:  Solving for h, Initial residual = 0.00484395, Final residual = 3.45049e-09, No Iterations 3
min/max(T) = 300, 1045.04
GAMGPCG:  Solving for p_rgh, Initial residual = 0.0200328, Final residual = 1.43017e-07, No Iterations 5
diagonal:  Solving for rho, Initial residual = 0, Final residual = 0, No Iterations 0
time step continuity errors : sum local = 1.15369e-08, global = -1.86748e-09, cumulative = -1.66024e-07
GAMGPCG:  Solving for p_rgh, Initial residual = 0.00295565, Final residual = 3.43082e-07, No Iterations 4
diagonal:  Solving for rho, Initial residual = 0, Final residual = 0, No Iterations 0
time step continuity errors : sum local = 2.61887e-08, global = 2.30896e-09, cumulative = -1.63715e-07
DILUPBiCGStab:  Solving for omega, Initial residual = 0.00016157, Final residual = 2.18586e-09, No Iterations 2
DILUPBiCGStab:  Solving for k, Initial residual = 0.0106098, Final residual = 4.77333e-09, No Iterations 3

ExecutionTime = 2.31 s  ClockTime = 2 s

    Overall     = 0.00193768, 0.01
Time = 267

diagonal:  Solving for rho, Initial residual = 0, Final residual = 0, No Iterations 0

Execution time for mesh.update() = 0 s

DILUPBiCGStab:  Solving for Ux, Initial residual = 0.00676911, Final residual = 5.62609e-09, No Iterations 3
DILUPBiCGStab:  Solving for Uy, Initial residual = 0.00795122, Final residual = 7.4381e-09, No Iterations 3
DILUPBiCGStab:  Solving for O2, Initial residual = 0.00426084, Final residual = 3.60045e-09, No Iterations 3
DILUPBiCGStab:  Solving for H2O, Initial residual = 0.00426084, Final residual = 3.60046e-09, No Iterations 3
DILUPBiCGStab:  Solving for CH4, Initial residual = 0, Final residual = 0, No Iterations 0
DILUPBiCGStab:  Solving for CO2, Initial residual = 0.00426084, Final residual = 3.60047e-09, No Iterations 3
DILUPBiCGStab:  Solving for h, Initial residual = 0.00483603, Final residual = 3.45888e-09, No Iterations 3
min/max(T) = 300, 1045.04
GAMGPCG:  Solving for p_rgh, Initial residual = 0.0195195, Final residual = 1.29848e-07, No Iterations 5
diagonal:  Solving for rho, Initial residual = 0, Final residual = 0, No Iterations 0
time step continuity errors : sum local = 1.0482e-08, global = -1.59953e-09, cumulative = -1.65314e-07
GAMGPCG:  Solving for p_rgh, Initial residual = 0.00308961, Final residual = 3.15903e-07, No Iterations 4
diagonal:  Solving for rho, Initial residual = 0, Final residual = 0, No Iterations 0
time step continuity errors : sum local = 2.43009e-08, global = 1.92318e-09, cumulative = -1.63391e-07
DILUPBiCGStab:  Solving for omega, Initial residual = 0.000162204, Final residual = 2.1109e-09, No Iterations 2
DILUPBiCGStab:  Solving for k, Initial residual = 0.0106518, Final residual = 4.8166e-09, No Iterations 3

ExecutionTime = 2.43 s  ClockTime = 2 s

    Overall     = 0.00193798, 0.01
Time = 268

diagonal:  Solving for rho, Initial residual = 0, Final residual = 0, No Iterations 0

Execution time for mesh.update() = 0 s

DILUPBiCGStab:  Solving for Ux, Initial residual = 0.00673653, Final residual = 5.21572e-09, No Iterations 3
DILUPBiCGStab:  Solving for Uy, Initial residual = 0.00789762, Final residual = 7.00973e-09, No Iterations 3
DILUPBiCGStab:  Solving for O2, Initial residual = 0.0042583, Final residual = 3.73113e-09, No Iterations 3
DILUPBiCGStab:  Solving for H2O, Initial residual = 0.0042583, Final residual = 3.73115e-09, No Iterations 3
DILUPBiCGStab:  Solving for CH4, Initial residual = 0, Final residual = 0, No Iterations 0
DILUPBiCGStab:  Solving for CO2, Initial residual = 0.00425829, Final residual = 3.73115e-09, No Iterations 3
DILUPBiCGStab:  Solving for h, Initial residual = 0.00483905, Final residual = 3.57776e-09, No Iterations 3
min/max(T) = 300, 1045.04
GAMGPCG:  Solving for p_rgh, Initial residual = 0.0197486, Final residual = 1.50252e-07, No Iterations 5
diagonal:  Solving for rho, Initial residual = 0, Final residual = 0, No Iterations 0
time step continuity errors : sum local = 1.20994e-08, global = -1.8689e-09, cumulative = -1.6526e-07
GAMGPCG:  Solving for p_rgh, Initial residual = 0.00292916, Final residual = 3.66866e-07, No Iterations 4
diagonal:  Solving for rho, Initial residual = 0, Final residual = 0, No Iterations 0
time step continuity errors : sum local = 2.82771e-08, global = 2.27847e-09, cumulative = -1.62981e-07
DILUPBiCGStab:  Solving for omega, Initial residual = 0.00016167, Final residual = 2.09624e-09, No Iterations 2
DILUPBiCGStab:  Solving for k, Initial residual = 0.0106663, Final residual = 4.74804e-09, No Iterations 3

ExecutionTime = 2.55 s  ClockTime = 2 s

    Overall     = 0.00193767, 0.01
Time = 269

diagonal:  Solving for rho, Initial residual = 0, Final residual = 0, No Iterations 0

Execution time for mesh.update() = 0 s

DILUPBiCGStab:  Solving for Ux, Initial residual = 0.00674933, Final residual = 4.50887e-09, No Iterations 3
DILUPBiCGStab:  Solving for Uy, Initial residual = 0.0079125, Final residual = 6.64184e-09, No Iterations 3
DILUPBiCGStab:  Solving for O2, Initial residual = 0.00425613, Final residual = 3.67083e-09, No Iterations 3
DILUPBiCGStab:  Solving for H2O, Initial residual = 0.00425612, Final residual = 3.67083e-09, No Iterations 3
DILUPBiCGStab:  Solving for CH4, Initial residual = 0, Final residual = 0, No Iterations 0
DILUPBiCGStab:  Solving for CO2, Initial residual = 0.00425612, Final residual = 3.67083e-09, No Iterations 3
DILUPBiCGStab:  Solving for h, Initial residual = 0.00483354, Final residual = 3.5165e-09, No Iterations 3
min/max(T) = 300, 1045.04
GAMGPCG:  Solving for p_rgh, Initial residual = 0.0205119, Final residual = 1.40149e-07, No Iterations 5
diagonal:  Solving for rho, Initial residual = 0, Final residual = 0, No Iterations 0
time step continuity errors : sum local = 1.12615e-08, global = -1.95172e-09, cumulative = -1.64933e-07
GAMGPCG:  Solving for p_rgh, Initial residual = 0.00301747, Final residual = 3.62933e-07, No Iterations 4
diagonal:  Solving for rho, Initial residual = 0, Final residual = 0, No Iterations 0
time step continuity errors : sum local = 2.79688e-08, global = 2.30939e-09, cumulative = -1.62624e-07
DILUPBiCGStab:  Solving for omega, Initial residual = 0.000160024, Final residual = 2.03336e-09, No Iterations 2
DILUPBiCGStab:  Solving for k, Initial residual = 0.0106805, Final residual = 4.44725e-09, No Iterations 3

ExecutionTime = 2.67 s  ClockTime = 2 s

    Overall     = 0.00193398, 0.01
Time = 270

diagonal:  Solving for rho, Initial residual = 0, Final residual = 0, No Iterations 0

Execution time for mesh.update() = 0 s

DILUPBiCGStab:  Solving for Ux, Initial residual = 0.0067428, Final residual = 4.77558e-09, No Iterations 3
DILUPBiCGStab:  Solving for Uy, Initial residual = 0.00792319, Final residual = 7.76704e-09, No Iterations 3
GAMGPCG:  Solving for G, Initial residual = 0.150356, Final residual = 2.96031e-05, No Iterations 6
DILUPBiCGStab:  Solving for O2, Initial residual = 0.00424782, Final residual = 3.52999e-09, No Iterations 3
DILUPBiCGStab:  Solving for H2O, Initial residual = 0.00424781, Final residual = 3.52999e-09, No Iterations 3
DILUPBiCGStab:  Solving for CH4, Initial residual = 0, Final residual = 0, No Iterations 0
DILUPBiCGStab:  Solving for CO2, Initial residual = 0.00424781, Final residual = 3.52999e-09, No Iterations 3
DILUPBiCGStab:  Solving for h, Initial residual = 0.00482454, Final residual = 3.32305e-09, No Iterations 3
min/max(T) = 300, 1045.04
GAMGPCG:  Solving for p_rgh, Initial residual = 0.0204836, Final residual = 1.55121e-07, No Iterations 5
diagonal:  Solving for rho, Initial residual = 0, Final residual = 0, No Iterations 0
time step continuity errors : sum local = 1.24137e-08, global = -1.9017e-09, cumulative = -1.64525e-07
GAMGPCG:  Solving for p_rgh, Initial residual = 0.00318687, Final residual = 3.46906e-07, No Iterations 4
diagonal:  Solving for rho, Initial residual = 0, Final residual = 0, No Iterations 0
time step continuity errors : sum local = 2.65369e-08, global = 2.40607e-09, cumulative = -1.62119e-07
DILUPBiCGStab:  Solving for omega, Initial residual = 0.00015981, Final residual = 1.81989e-09, No Iterations 2
DILUPBiCGStab:  Solving for k, Initial residual = 0.0106918, Final residual = 4.12687e-09, No Iterations 3

ExecutionTime = 2.93 s  ClockTime = 3 s

    Overall     = 0.0019319, 0.01
Time = 271

diagonal:  Solving for rho, Initial residual = 0, Final residual = 0, No Iterations 0

Execution time for mesh.update() = 0 s

DILUPBiCGStab:  Solving for Ux, Initial residual = 0.00671502, Final residual = 4.33585e-09, No Iterations 3
DILUPBiCGStab:  Solving for Uy, Initial residual = 0.00791453, Final residual = 7.22066e-09, No Iterations 3
DILUPBiCGStab:  Solving for O2, Initial residual = 0.00424778, Final residual = 3.28503e-09, No Iterations 3
DILUPBiCGStab:  Solving for H2O, Initial residual = 0.00424778, Final residual = 3.28503e-09, No Iterations 3
DILUPBiCGStab:  Solving for CH4, Initial residual = 0, Final residual = 0, No Iterations 0
DILUPBiCGStab:  Solving for CO2, Initial residual = 0.00424778, Final residual = 3.28503e-09, No Iterations 3
DILUPBiCGStab:  Solving for h, Initial residual = 0.00482487, Final residual = 3.12552e-09, No Iterations 3
min/max(T) = 300, 1045.04
GAMGPCG:  Solving for p_rgh, Initial residual = 0.0204497, Final residual = 1.52668e-07, No Iterations 5
diagonal:  Solving for rho, Initial residual = 0, Final residual = 0, No Iterations 0
time step continuity errors : sum local = 1.22608e-08, global = -1.95442e-09, cumulative = -1.64074e-07
GAMGPCG:  Solving for p_rgh, Initial residual = 0.00312397, Final residual = 3.32686e-07, No Iterations 4
diagonal:  Solving for rho, Initial residual = 0, Final residual = 0, No Iterations 0
time step continuity errors : sum local = 2.53929e-08, global = 2.32699e-09, cumulative = -1.61747e-07
DILUPBiCGStab:  Solving for omega, Initial residual = 0.000161891, Final residual = 1.65332e-09, No Iterations 2
DILUPBiCGStab:  Solving for k, Initial residual = 0.0106716, Final residual = 3.57802e-09, No Iterations 3

ExecutionTime = 3.05 s  ClockTime = 3 s

    Overall     = 0.00192759, 0.01
Time = 272

diagonal:  Solving for rho, Initial residual = 0, Final residual = 0, No Iterations 0

Execution time for mesh.update() = 0 s

DILUPBiCGStab:  Solving for Ux, Initial residual = 0.0067195, Final residual = 4.30636e-09, No Iterations 3
DILUPBiCGStab:  Solving for Uy, Initial residual = 0.00788615, Final residual = 6.36992e-09, No Iterations 3
DILUPBiCGStab:  Solving for O2, Initial residual = 0.00424666, Final residual = 3.12042e-09, No Iterations 3
DILUPBiCGStab:  Solving for H2O, Initial residual = 0.00424665, Final residual = 3.12041e-09, No Iterations 3
DILUPBiCGStab:  Solving for CH4, Initial residual = 0, Final residual = 0, No Iterations 0
DILUPBiCGStab:  Solving for CO2, Initial residual = 0.00424665, Final residual = 3.12041e-09, No Iterations 3
DILUPBiCGStab:  Solving for h, Initial residual = 0.00482668, Final residual = 2.89256e-09, No Iterations 3
min/max(T) = 300, 1045.04
GAMGPCG:  Solving for p_rgh, Initial residual = 0.0208154, Final residual = 1.67966e-07, No Iterations 5
diagonal:  Solving for rho, Initial residual = 0, Final residual = 0, No Iterations 0
time step continuity errors : sum local = 1.36309e-08, global = -2.53447e-09, cumulative = -1.64281e-07
GAMGPCG:  Solving for p_rgh, Initial residual = 0.00313536, Final residual = 3.39785e-07, No Iterations 4
diagonal:  Solving for rho, Initial residual = 0, Final residual = 0, No Iterations 0
time step continuity errors : sum local = 2.55272e-08, global = 2.83742e-09, cumulative = -1.61444e-07
DILUPBiCGStab:  Solving for omega, Initial residual = 0.000159484, Final residual = 1.52485e-09, No Iterations 2
DILUPBiCGStab:  Solving for k, Initial residual = 0.0106656, Final residual = 3.42426e-09, No Iterations 3

ExecutionTime = 3.17 s  ClockTime = 3 s

    Overall     = 0.00192538, 0.01
Time = 273

diagonal:  Solving for rho, Initial residual = 0, Final residual = 0, No Iterations 0

Execution time for mesh.update() = 0 s

DILUPBiCGStab:  Solving for Ux, Initial residual = 0.00672288, Final residual = 4.10416e-09, No Iterations 3
DILUPBiCGStab:  Solving for Uy, Initial residual = 0.00788395, Final residual = 6.49686e-09, No Iterations 3
DILUPBiCGStab:  Solving for O2, Initial residual = 0.00423579, Final residual = 3.00542e-09, No Iterations 3
DILUPBiCGStab:  Solving for H2O, Initial residual = 0.00423579, Final residual = 3.00541e-09, No Iterations 3
DILUPBiCGStab:  Solving for CH4, Initial residual = 0, Final residual = 0, No Iterations 0
DILUPBiCGStab:  Solving for CO2, Initial residual = 0.00423579, Final residual = 3.00541e-09, No Iterations 3
DILUPBiCGStab:  Solving for h, Initial residual = 0.0048096, Final residual = 2.72619e-09, No Iterations 3
min/max(T) = 300, 1045.04
GAMGPCG:  Solving for p_rgh, Initial residual = 0.0207667, Final residual = 1.70497e-07, No Iterations 5
diagonal:  Solving for rho, Initial residual = 0, Final residual = 0, No Iterations 0
time step continuity errors : sum local = 1.38507e-08, global = -2.99564e-09, cumulative = -1.6444e-07
GAMGPCG:  Solving for p_rgh, Initial residual = 0.00326916, Final residual = 3.53547e-07, No Iterations 4
diagonal:  Solving for rho, Initial residual = 0, Final residual = 0, No Iterations 0
time step continuity errors : sum local = 2.68673e-08, global = 3.30413e-09, cumulative = -1.61135e-07
DILUPBiCGStab:  Solving for omega, Initial residual = 0.000158724, Final residual = 1.34367e-09, No Iterations 2
DILUPBiCGStab:  Solving for k, Initial residual = 0.0106361, Final residual = 3.10833e-09, No Iterations 3

ExecutionTime = 3.29 s  ClockTime = 3 s

    Overall     = 0.00191915, 0.01
Time = 274

diagonal:  Solving for rho, Initial residual = 0, Final residual = 0, No Iterations 0

Execution time for mesh.update() = 0 s

DILUPBiCGStab:  Solving for Ux, Initial residual = 0.00671572, Final residual = 3.87056e-09, No Iterations 3
DILUPBiCGStab:  Solving for Uy, Initial residual = 0.00784095, Final residual = 5.05243e-09, No Iterations 3
DILUPBiCGStab:  Solving for O2, Initial residual = 0.00421971, Final residual = 2.8754e-09, No Iterations 3
DILUPBiCGStab:  Solving for H2O, Initial residual = 0.00421971, Final residual = 2.8754e-09, No Iterations 3
DILUPBiCGStab:  Solving for CH4, Initial residual = 0, Final residual = 0, No Iterations 0
DILUPBiCGStab:  Solving for CO2, Initial residual = 0.00421971, Final residual = 2.8754e-09, No Iterations 3
DILUPBiCGStab:  Solving for h, Initial residual = 0.00479201, Final residual = 2.58948e-09, No Iterations 3
min/max(T) = 300, 1045.04
GAMGPCG:  Solving for p_rgh, Initial residual = 0.0203196, Final residual = 1.71041e-07, No Iterations 5
diagonal:  Solving for rho, Initial residual = 0, Final residual = 0, No Iterations 0
time step continuity errors : sum local = 1.38294e-08, global = -2.82965e-09, cumulative = -1.63965e-07
GAMGPCG:  Solving for p_rgh, Initial residual = 0.00315486, Final residual = 3.61343e-07, No Iterations 4
diagonal:  Solving for rho, Initial residual = 0, Final residual = 0, No Iterations 0
time step continuity errors : sum local = 2.73194e-08, global = 3.00927e-09, cumulative = -1.60956e-07
DILUPBiCGStab:  Solving for omega, Initial residual = 0.000158209, Final residual = 1.26949e-09, No Iterations 2
DILUPBiCGStab:  Solving for k, Initial residual = 0.0106023, Final residual = 3.02645e-09, No Iterations 3

ExecutionTime = 3.41 s  ClockTime = 3 s

    Overall     = 0.00191666, 0.01
Time = 275

diagonal:  Solving for rho, Initial residual = 0, Final residual = 0, No Iterations 0

Execution time for mesh.update() = 0 s

DILUPBiCGStab:  Solving for Ux, Initial residual = 0.00670534, Final residual = 3.69628e-09, No Iterations 3
DILUPBiCGStab:  Solving for Uy, Initial residual = 0.00779976, Final residual = 5.3527e-09, No Iterations 3
DILUPBiCGStab:  Solving for O2, Initial residual = 0.00420258, Final residual = 2.77932e-09, No Iterations 3
DILUPBiCGStab:  Solving for H2O, Initial residual = 0.00420258, Final residual = 2.77932e-09, No Iterations 3
DILUPBiCGStab:  Solving for CH4, Initial residual = 0, Final residual = 0, No Iterations 0
DILUPBiCGStab:  Solving for CO2, Initial residual = 0.00420258, Final residual = 2.77932e-09, No Iterations 3
DILUPBiCGStab:  Solving for h, Initial residual = 0.00476785, Final residual = 2.49702e-09, No Iterations 3
min/max(T) = 300, 1045.04
GAMGPCG:  Solving for p_rgh, Initial residual = 0.0205957, Final residual = 2.14255e-07, No Iterations 5
diagonal:  Solving for rho, Initial residual = 0, Final residual = 0, No Iterations 0
time step continuity errors : sum local = 1.70253e-08, global = -3.46855e-09, cumulative = -1.64424e-07
GAMGPCG:  Solving for p_rgh, Initial residual = 0.00312166, Final residual = 4.30391e-07, No Iterations 4
diagonal:  Solving for rho, Initial residual = 0, Final residual = 0, No Iterations 0
time step continuity errors : sum local = 3.22512e-08, global = 3.39044e-09, cumulative = -1.61034e-07
DILUPBiCGStab:  Solving for omega, Initial residual = 0.000157881, Final residual = 1.18527e-09, No Iterations 2
DILUPBiCGStab:  Solving for k, Initial residual = 0.0105925, Final residual = 3.00762e-09, No Iterations 3

ExecutionTime = 3.53 s  ClockTime = 3 s

    Overall     = 0.00191372, 0.01
Time = 276

diagonal:  Solving for rho, Initial residual = 0, Final residual = 0, No Iterations 0

Execution time for mesh.update() = 0 s

DILUPBiCGStab:  Solving for Ux, Initial residual = 0.00671358, Final residual = 3.65249e-09, No Iterations 3
DILUPBiCGStab:  Solving for Uy, Initial residual = 0.00781022, Final residual = 5.13025e-09, No Iterations 3
DILUPBiCGStab:  Solving for O2, Initial residual = 0.00419005, Final residual = 2.69672e-09, No Iterations 3
DILUPBiCGStab:  Solving for H2O, Initial residual = 0.00419005, Final residual = 2.69672e-09, No Iterations 3
DILUPBiCGStab:  Solving for CH4, Initial residual = 0, Final residual = 0, No Iterations 0
DILUPBiCGStab:  Solving for CO2, Initial residual = 0.00419005, Final residual = 2.69672e-09, No Iterations 3
DILUPBiCGStab:  Solving for h, Initial residual = 0.00475513, Final residual = 2.32564e-09, No Iterations 3
min/max(T) = 300, 1045.04
GAMGPCG:  Solving for p_rgh, Initial residual = 0.0205184, Final residual = 2.32515e-07, No Iterations 5
diagonal:  Solving for rho, Initial residual = 0, Final residual = 0, No Iterations 0
time step continuity errors : sum local = 1.84253e-08, global = -4.1625e-09, cumulative = -1.65196e-07
GAMGPCG:  Solving for p_rgh, Initial residual = 0.003274, Final residual = 4.2325e-07, No Iterations 4
diagonal:  Solving for rho, Initial residual = 0, Final residual = 0, No Iterations 0
time step continuity errors : sum local = 3.20335e-08, global = 3.94001e-09, cumulative = -1.61256e-07
DILUPBiCGStab:  Solving for omega, Initial residual = 0.000157773, Final residual = 1.21715e-09, No Iterations 2
DILUPBiCGStab:  Solving for k, Initial residual = 0.0105559, Final residual = 3.14922e-09, No Iterations 3

ExecutionTime = 3.65 s  ClockTime = 3 s

    Overall     = 0.00191145, 0.01
Time = 277

diagonal:  Solving for rho, Initial residual = 0, Final residual = 0, No Iterations 0

Execution time for mesh.update() = 0 s

DILUPBiCGStab:  Solving for Ux, Initial residual = 0.00672605, Final residual = 3.59874e-09, No Iterations 3
DILUPBiCGStab:  Solving for Uy, Initial residual = 0.00778147, Final residual = 4.82232e-09, No Iterations 3
DILUPBiCGStab:  Solving for O2, Initial residual = 0.00417635, Final residual = 2.67942e-09, No Iterations 3
DILUPBiCGStab:  Solving for H2O, Initial residual = 0.00417635, Final residual = 2.67943e-09, No Iterations 3
DILUPBiCGStab:  Solving for CH4, Initial residual = 0, Final residual = 0, No Iterations 0
DILUPBiCGStab:  Solving for CO2, Initial residual = 0.00417635, Final residual = 2.67943e-09, No Iterations 3
DILUPBiCGStab:  Solving for h, Initial residual = 0.00473798, Final residual = 2.30708e-09, No Iterations 3
min/max(T) = 300, 1045.04
GAMGPCG:  Solving for p_rgh, Initial residual = 0.0197754, Final residual = 1.95934e-07, No Iterations 5
diagonal:  Solving for rho, Initial residual = 0, Final residual = 0, No Iterations 0
time step continuity errors : sum local = 1.56753e-08, global = -3.70203e-09, cumulative = -1.64958e-07
GAMGPCG:  Solving for p_rgh, Initial residual = 0.00332863, Final residual = 4.32337e-07, No Iterations 4
diagonal:  Solving for rho, Initial residual = 0, Final residual = 0, No Iterations 0
time step continuity errors : sum local = 3.25609e-08, global = 3.88869e-09, cumulative = -1.6107e-07
DILUPBiCGStab:  Solving for omega, Initial residual = 0.000155419, Final residual = 1.10159e-09, No Iterations 2
DILUPBiCGStab:  Solving for k, Initial residual = 0.0105059, Final residual = 3.10161e-09, No Iterations 3

ExecutionTime = 3.77 s  ClockTime = 4 s

    Overall     = 0.00190651, 0.01
Time = 278

diagonal:  Solving for rho, Initial residual = 0, Final residual = 0, No Iterations 0

Execution time for mesh.update() = 0 s

DILUPBiCGStab:  Solving for Ux, Initial residual = 0.00671213, Final residual = 3.41572e-09, No Iterations 3
DILUPBiCGStab:  Solving for Uy, Initial residual = 0.00771923, Final residual = 4.89475e-09, No Iterations 3
DILUPBiCGStab:  Solving for O2, Initial residual = 0.00415794, Final residual = 2.4933e-09, No Iterations 3
DILUPBiCGStab:  Solving for H2O, Initial residual = 0.00415794, Final residual = 2.49331e-09, No Iterations 3
DILUPBiCGStab:  Solving for CH4, Initial residual = 0, Final residual = 0, No Iterations 0
DILUPBiCGStab:  Solving for CO2, Initial residual = 0.00415794, Final residual = 2.49331e-09, No Iterations 3
DILUPBiCGStab:  Solving for h, Initial residual = 0.00471425, Final residual = 2.16802e-09, No Iterations 3
min/max(T) = 300, 1045.04
GAMGPCG:  Solving for p_rgh, Initial residual = 0.0209019, Final residual = 1.80907e-07, No Iterations 5
diagonal:  Solving for rho, Initial residual = 0, Final residual = 0, No Iterations 0
time step continuity errors : sum local = 1.42312e-08, global = -3.44898e-09, cumulative = -1.64519e-07
GAMGPCG:  Solving for p_rgh, Initial residual = 0.00310873, Final residual = 4.53073e-07, No Iterations 4
diagonal:  Solving for rho, Initial residual = 0, Final residual = 0, No Iterations 0
time step continuity errors : sum local = 3.42022e-08, global = 4.04474e-09, cumulative = -1.60474e-07
DILUPBiCGStab:  Solving for omega, Initial residual = 0.000156147, Final residual = 1.20615e-09, No Iterations 2
DILUPBiCGStab:  Solving for k, Initial residual = 0.0104764, Final residual = 3.28462e-09, No Iterations 3

ExecutionTime = 3.89 s  ClockTime = 4 s

    Overall     = 0.00190644, 0.01
Time = 279

diagonal:  Solving for rho, Initial residual = 0, Final residual = 0, No Iterations 0

Execution time for mesh.update() = 0 s

DILUPBiCGStab:  Solving for Ux, Initial residual = 0.00671491, Final residual = 3.27472e-09, No Iterations 3
DILUPBiCGStab:  Solving for Uy, Initial residual = 0.00772393, Final residual = 4.73241e-09, No Iterations 3
DILUPBiCGStab:  Solving for O2, Initial residual = 0.00414641, Final residual = 2.58507e-09, No Iterations 3
DILUPBiCGStab:  Solving for H2O, Initial residual = 0.00414641, Final residual = 2.58507e-09, No Iterations 3
DILUPBiCGStab:  Solving for CH4, Initial residual = 0, Final residual = 0, No Iterations 0
DILUPBiCGStab:  Solving for CO2, Initial residual = 0.00414641, Final residual = 2.58507e-09, No Iterations 3
DILUPBiCGStab:  Solving for h, Initial residual = 0.00469786, Final residual = 2.14609e-09, No Iterations 3
min/max(T) = 300, 1045.04
GAMGPCG:  Solving for p_rgh, Initial residual = 0.0209167, Final residual = 1.75361e-07, No Iterations 5
diagonal:  Solving for rho, Initial residual = 0, Final residual = 0, No Iterations 0
time step continuity errors : sum local = 1.3978e-08, global = -3.23459e-09, cumulative = -1.63709e-07
GAMGPCG:  Solving for p_rgh, Initial residual = 0.00342318, Final residual = 4.41421e-07, No Iterations 4
diagonal:  Solving for rho, Initial residual = 0, Final residual = 0, No Iterations 0
time step continuity errors : sum local = 3.33984e-08, global = 3.84995e-09, cumulative = -1.59859e-07
DILUPBiCGStab:  Solving for omega, Initial residual = 0.00015357, Final residual = 1.14163e-09, No Iterations 2
DILUPBiCGStab:  Solving for k, Initial residual = 0.0104432, Final residual = 3.43095e-09, No Iterations 3

ExecutionTime = 4.01 s  ClockTime = 4 s

    Overall     = 0.00190207, 0.01
Time = 280

diagonal:  Solving for rho, Initial residual = 0, Final residual = 0, No Iterations 0

Execution time for mesh.update() = 0 s

DILUPBiCGStab:  Solving for Ux, Initial residual = 0.00670271, Final residual = 3.31281e-09, No Iterations 3
DILUPBiCGStab:  Solving for Uy, Initial residual = 0.00768877, Final residual = 4.72739e-09, No Iterations 3
GAMGPCG:  Solving for G, Initial residual = 0.168727, Final residual = 8.33489e-05, No Iterations 6
DILUPBiCGStab:  Solving for O2, Initial residual = 0.00412842, Final residual = 2.3998e-09, No Iterations 3
DILUPBiCGStab:  Solving for H2O, Initial residual = 0.00412843, Final residual = 2.3998e-09, No Iterations 3
DILUPBiCGStab:  Solving for CH4, Initial residual = 0, Final residual = 0, No Iterations 0
DILUPBiCGStab:  Solving for CO2, Initial residual = 0.00412843, Final residual = 2.3998e-09, No Iterations 3
DILUPBiCGStab:  Solving for h, Initial residual = 0.00468165, Final residual = 2.07683e-09, No Iterations 3
min/max(T) = 300, 1045.04
GAMGPCG:  Solving for p_rgh, Initial residual = 0.0207303, Final residual = 1.54609e-07, No Iterations 5
diagonal:  Solving for rho, Initial residual = 0, Final residual = 0, No Iterations 0
time step continuity errors : sum local = 1.22482e-08, global = -2.69001e-09, cumulative = -1.62549e-07
GAMGPCG:  Solving for p_rgh, Initial residual = 0.00333425, Final residual = 4.65265e-07, No Iterations 4
diagonal:  Solving for rho, Initial residual = 0, Final residual = 0, No Iterations 0
time step continuity errors : sum local = 3.53729e-08, global = 3.80943e-09, cumulative = -1.58739e-07
DILUPBiCGStab:  Solving for omega, Initial residual = 0.000154293, Final residual = 1.19994e-09, No Iterations 2
DILUPBiCGStab:  Solving for k, Initial residual = 0.0103873, Final residual = 3.87794e-09, No Iterations 3

ExecutionTime = 4.27 s  ClockTime = 4 s

    Overall     = 0.00190163, 0.01
Time = 281

diagonal:  Solving for rho, Initial residual = 0, Final residual = 0, No Iterations 0

Execution time for mesh.update() = 0 s

DILUPBiCGStab:  Solving for Ux, Initial residual = 0.00671405, Final residual = 3.11149e-09, No Iterations 3
DILUPBiCGStab:  Solving for Uy, Initial residual = 0.00766466, Final residual = 4.1639e-09, No Iterations 3
DILUPBiCGStab:  Solving for O2, Initial residual = 0.00410957, Final residual = 2.31541e-09, No Iterations 3
DILUPBiCGStab:  Solving for H2O, Initial residual = 0.00410957, Final residual = 2.31541e-09, No Iterations 3
DILUPBiCGStab:  Solving for CH4, Initial residual = 0, Final residual = 0, No Iterations 0
DILUPBiCGStab:  Solving for CO2, Initial residual = 0.00410957, Final residual = 2.31541e-09, No Iterations 3
DILUPBiCGStab:  Solving for h, Initial residual = 0.00466015, Final residual = 2.00802e-09, No Iterations 3
min/max(T) = 300, 1045.04
GAMGPCG:  Solving for p_rgh, Initial residual = 0.0215213, Final residual = 9.91394e-07, No Iterations 4
diagonal:  Solving for rho, Initial residual = 0, Final residual = 0, No Iterations 0
time step continuity errors : sum local = 7.66082e-08, global = 1.04273e-09, cumulative = -1.57696e-07
GAMGPCG:  Solving for p_rgh, Initial residual = 0.00328995, Final residual = 4.5049e-07, No Iterations 4
diagonal:  Solving for rho, Initial residual = 0, Final residual = 0, No Iterations 0
time step continuity errors : sum local = 3.41092e-08, global = 3.53156e-09, cumulative = -1.54165e-07
DILUPBiCGStab:  Solving for omega, Initial residual = 0.000153421, Final residual = 1.06715e-09, No Iterations 2
DILUPBiCGStab:  Solving for k, Initial residual = 0.0103251, Final residual = 4.22909e-09, No Iterations 3

ExecutionTime = 4.39 s  ClockTime = 4 s

    Overall     = 0.00189986, 0.01
Time = 282

diagonal:  Solving for rho, Initial residual = 0, Final residual = 0, No Iterations 0

Execution time for mesh.update() = 0 s

DILUPBiCGStab:  Solving for Ux, Initial residual = 0.00673893, Final residual = 3.14754e-09, No Iterations 3
DILUPBiCGStab:  Solving for Uy, Initial residual = 0.00768967, Final residual = 4.23287e-09, No Iterations 3
DILUPBiCGStab:  Solving for O2, Initial residual = 0.00408799, Final residual = 2.31718e-09, No Iterations 3
DILUPBiCGStab:  Solving for H2O, Initial residual = 0.00408799, Final residual = 2.31718e-09, No Iterations 3
DILUPBiCGStab:  Solving for CH4, Initial residual = 0, Final residual = 0, No Iterations 0
DILUPBiCGStab:  Solving for CO2, Initial residual = 0.00408799, Final residual = 2.31718e-09, No Iterations 3
DILUPBiCGStab:  Solving for h, Initial residual = 0.00462959, Final residual = 2.00236e-09, No Iterations 3
min/max(T) = 300, 1045.04
GAMGPCG:  Solving for p_rgh, Initial residual = 0.0214376, Final residual = 1.63297e-07, No Iterations 5
diagonal:  Solving for rho, Initial residual = 0, Final residual = 0, No Iterations 0
time step continuity errors : sum local = 1.2921e-08, global = -2.96414e-09, cumulative = -1.57129e-07
GAMGPCG:  Solving for p_rgh, Initial residual = 0.00357032, Final residual = 4.57344e-07, No Iterations 4
diagonal:  Solving for rho, Initial residual = 0, Final residual = 0, No Iterations 0
time step continuity errors : sum local = 3.46782e-08, global = 3.92512e-09, cumulative = -1.53204e-07
DILUPBiCGStab:  Solving for omega, Initial residual = 0.000153644, Final residual = 1.11155e-09, No Iterations 2
DILUPBiCGStab:  Solving for k, Initial residual = 0.0102498, Final residual = 3.29698e-09, No Iterations 3

ExecutionTime = 4.51 s  ClockTime = 4 s

    Overall     = 0.00189807, 0.01
Time = 283

diagonal:  Solving for rho, Initial residual = 0, Final residual = 0, No Iterations 0

Execution time for mesh.update() = 0 s

DILUPBiCGStab:  Solving for Ux, Initial residual = 0.00672603, Final residual = 3.1409e-09, No Iterations 3
DILUPBiCGStab:  Solving for Uy, Initial residual = 0.00766776, Final residual = 3.82611e-09, No Iterations 3
DILUPBiCGStab:  Solving for O2, Initial residual = 0.00407194, Final residual = 2.18028e-09, No Iterations 3
DILUPBiCGStab:  Solving for H2O, Initial residual = 0.00407194, Final residual = 2.18028e-09, No Iterations 3
DILUPBiCGStab:  Solving for CH4, Initial residual = 0, Final residual = 0, No Iterations 0
DILUPBiCGStab:  Solving for CO2, Initial residual = 0.00407194, Final residual = 2.18028e-09, No Iterations 3
DILUPBiCGStab:  Solving for h, Initial residual = 0.00460656, Final residual = 1.91806e-09, No Iterations 3
min/max(T) = 300, 1045.04
GAMGPCG:  Solving for p_rgh, Initial residual = 0.0212416, Final residual = 1.48361e-07, No Iterations 5
diagonal:  Solving for rho, Initial residual = 0, Final residual = 0, No Iterations 0
time step continuity errors : sum local = 1.168e-08, global = -3.36318e-09, cumulative = -1.56567e-07
GAMGPCG:  Solving for p_rgh, Initial residual = 0.00344061, Final residual = 4.72283e-07, No Iterations 4
diagonal:  Solving for rho, Initial residual = 0, Final residual = 0, No Iterations 0
time step continuity errors : sum local = 3.5363e-08, global = 4.0559e-09, cumulative = -1.52511e-07
DILUPBiCGStab:  Solving for omega, Initial residual = 0.000149518, Final residual = 1.03653e-09, No Iterations 2
DILUPBiCGStab:  Solving for k, Initial residual = 0.0101637, Final residual = 3.05886e-09, No Iterations 3

ExecutionTime = 4.63 s  ClockTime = 4 s

    Overall     = 0.00189508, 0.01
Time = 284

diagonal:  Solving for rho, Initial residual = 0, Final residual = 0, No Iterations 0

Execution time for mesh.update() = 0 s

DILUPBiCGStab:  Solving for Ux, Initial residual = 0.00673153, Final residual = 3.22161e-09, No Iterations 3
DILUPBiCGStab:  Solving for Uy, Initial residual = 0.00764421, Final residual = 3.75187e-09, No Iterations 3
DILUPBiCGStab:  Solving for O2, Initial residual = 0.00405789, Final residual = 2.14563e-09, No Iterations 3
DILUPBiCGStab:  Solving for H2O, Initial residual = 0.00405789, Final residual = 2.14563e-09, No Iterations 3
DILUPBiCGStab:  Solving for CH4, Initial residual = 0, Final residual = 0, No Iterations 0
DILUPBiCGStab:  Solving for CO2, Initial residual = 0.00405789, Final residual = 2.14563e-09, No Iterations 3
DILUPBiCGStab:  Solving for h, Initial residual = 0.0045939, Final residual = 1.87178e-09, No Iterations 3
min/max(T) = 300, 1045.04
GAMGPCG:  Solving for p_rgh, Initial residual = 0.0218948, Final residual = 1.49412e-07, No Iterations 5
diagonal:  Solving for rho, Initial residual = 0, Final residual = 0, No Iterations 0
time step continuity errors : sum local = 1.19438e-08, global = -2.98181e-09, cumulative = -1.55493e-07
GAMGPCG:  Solving for p_rgh, Initial residual = 0.00351364, Final residual = 5.03273e-07, No Iterations 4
diagonal:  Solving for rho, Initial residual = 0, Final residual = 0, No Iterations 0
time step continuity errors : sum local = 3.76998e-08, global = 4.61341e-09, cumulative = -1.5088e-07
DILUPBiCGStab:  Solving for omega, Initial residual = 0.000151131, Final residual = 1.02822e-09, No Iterations 2
DILUPBiCGStab:  Solving for k, Initial residual = 0.0100727, Final residual = 3.28755e-09, No Iterations 3

ExecutionTime = 4.75 s  ClockTime = 5 s

    Overall     = 0.00189264, 0.01
Time = 285

diagonal:  Solving for rho, Initial residual = 0, Final residual = 0, No Iterations 0

Execution time for mesh.update() = 0 s

DILUPBiCGStab:  Solving for Ux, Initial residual = 0.00674737, Final residual = 3.2171e-09, No Iterations 3
DILUPBiCGStab:  Solving for Uy, Initial residual = 0.00762956, Final residual = 3.61424e-09, No Iterations 3
DILUPBiCGStab:  Solving for O2, Initial residual = 0.00402589, Final residual = 2.3981e-09, No Iterations 3
DILUPBiCGStab:  Solving for H2O, Initial residual = 0.00402589, Final residual = 2.39811e-09, No Iterations 3
DILUPBiCGStab:  Solving for CH4, Initial residual = 0, Final residual = 0, No Iterations 0
DILUPBiCGStab:  Solving for CO2, Initial residual = 0.00402589, Final residual = 2.39811e-09, No Iterations 3
DILUPBiCGStab:  Solving for h, Initial residual = 0.00455504, Final residual = 1.98119e-09, No Iterations 3
min/max(T) = 300, 1045.04
GAMGPCG:  Solving for p_rgh, Initial residual = 0.0223143, Final residual = 1.42119e-07, No Iterations 5
diagonal:  Solving for rho, Initial residual = 0, Final residual = 0, No Iterations 0
time step continuity errors : sum local = 1.10574e-08, global = -1.99418e-09, cumulative = -1.52874e-07
GAMGPCG:  Solving for p_rgh, Initial residual = 0.00351118, Final residual = 4.56844e-07, No Iterations 4
diagonal:  Solving for rho, Initial residual = 0, Final residual = 0, No Iterations 0
time step continuity errors : sum local = 3.43563e-08, global = 5.18854e-09, cumulative = -1.47685e-07
DILUPBiCGStab:  Solving for omega, Initial residual = 0.00015071, Final residual = 1.00902e-09, No Iterations 2
DILUPBiCGStab:  Solving for k, Initial residual = 0.00999276, Final residual = 3.17552e-09, No Iterations 3

ExecutionTime = 4.87 s  ClockTime = 5 s

    Overall     = 0.00189046, 0.01
Time = 286

diagonal:  Solving for rho, Initial residual = 0, Final residual = 0, No Iterations 0

Execution time for mesh.update() = 0 s

DILUPBiCGStab:  Solving for Ux, Initial residual = 0.00675522, Final residual = 3.32379e-09, No Iterations 3
DILUPBiCGStab:  Solving for Uy, Initial residual = 0.0076099, Final residual = 3.60566e-09, No Iterations 3
DILUPBiCGStab:  Solving for O2, Initial residual = 0.0040003, Final residual = 2.34858e-09, No Iterations 3
DILUPBiCGStab:  Solving for H2O, Initial residual = 0.0040003, Final residual = 2.34858e-09, No Iterations 3
DILUPBiCGStab:  Solving for CH4, Initial residual = 0, Final residual = 0, No Iterations 0
DILUPBiCGStab:  Solving for CO2, Initial residual = 0.0040003, Final residual = 2.34858e-09, No Iterations 3
DILUPBiCGStab:  Solving for h, Initial residual = 0.00452689, Final residual = 1.95304e-09, No Iterations 3
min/max(T) = 300, 1045.04
GAMGPCG:  Solving for p_rgh, Initial residual = 0.0222496, Final residual = 1.61149e-07, No Iterations 5
diagonal:  Solving for rho, Initial residual = 0, Final residual = 0, No Iterations 0
time step continuity errors : sum local = 1.25936e-08, global = -3.78579e-09, cumulative = -1.51471e-07
GAMGPCG:  Solving for p_rgh, Initial residual = 0.00343261, Final residual = 4.65872e-07, No Iterations 4
diagonal:  Solving for rho, Initial residual = 0, Final residual = 0, No Iterations 0
time step continuity errors : sum local = 3.49743e-08, global = 5.57987e-09, cumulative = -1.45891e-07
DILUPBiCGStab:  Solving for omega, Initial residual = 0.000146091, Final residual = 1.00516e-09, No Iterations 2
DILUPBiCGStab:  Solving for k, Initial residual = 0.00991721, Final residual = 3.35125e-09, No Iterations 3

ExecutionTime = 4.99 s  ClockTime = 5 s

    Overall     = 0.00188869, 0.01
Time = 287

diagonal:  Solving for rho, Initial residual = 0, Final residual = 0, No Iterations 0

Execution time for mesh.update() = 0 s

DILUPBiCGStab:  Solving for Ux, Initial residual = 0.00677915, Final residual = 3.44402e-09, No Iterations 3
DILUPBiCGStab:  Solving for Uy, Initial residual = 0.00759996, Final residual = 3.70401e-09, No Iterations 3
DILUPBiCGStab:  Solving for O2, Initial residual = 0.00396222, Final residual = 2.60718e-09, No Iterations 3
DILUPBiCGStab:  Solving for H2O, Initial residual = 0.00396222, Final residual = 2.60719e-09, No Iterations 3
DILUPBiCGStab:  Solving for CH4, Initial residual = 0, Final residual = 0, No Iterations 0
DILUPBiCGStab:  Solving for CO2, Initial residual = 0.00396222, Final residual = 2.60719e-09, No Iterations 3
DILUPBiCGStab:  Solving for h, Initial residual = 0.00448186, Final residual = 2.08535e-09, No Iterations 3
min/max(T) = 300, 1045.04
GAMGPCG:  Solving for p_rgh, Initial residual = 0.0220498, Final residual = 1.68298e-07, No Iterations 5
diagonal:  Solving for rho, Initial residual = 0, Final residual = 0, No Iterations 0
time step continuity errors : sum local = 1.30125e-08, global = 3.6787e-10, cumulative = -1.45523e-07
GAMGPCG:  Solving for p_rgh, Initial residual = 0.00352929, Final residual = 4.82114e-07, No Iterations 4
diagonal:  Solving for rho, Initial residual = 0, Final residual = 0, No Iterations 0
time step continuity errors : sum local = 3.64429e-08, global = 6.00978e-09, cumulative = -1.39514e-07
DILUPBiCGStab:  Solving for omega, Initial residual = 0.000148183, Final residual = 1.00029e-09, No Iterations 2
DILUPBiCGStab:  Solving for k, Initial residual = 0.00983546, Final residual = 3.2313e-09, No Iterations 3

ExecutionTime = 5.11 s  ClockTime = 5 s

    Overall     = 0.00188728, 0.01
Time = 288

diagonal:  Solving for rho, Initial residual = 0, Final residual = 0, No Iterations 0

Execution time for mesh.update() = 0 s

DILUPBiCGStab:  Solving for Ux, Initial residual = 0.00679513, Final residual = 3.73816e-09, No Iterations 3
DILUPBiCGStab:  Solving for Uy, Initial residual = 0.00755321, Final residual = 3.69347e-09, No Iterations 3
DILUPBiCGStab:  Solving for O2, Initial residual = 0.00392329, Final residual = 2.4592e-09, No Iterations 3
DILUPBiCGStab:  Solving for H2O, Initial residual = 0.0039233, Final residual = 2.45921e-09, No Iterations 3
DILUPBiCGStab:  Solving for CH4, Initial residual = 0, Final residual = 0, No Iterations 0
DILUPBiCGStab:  Solving for CO2, Initial residual = 0.0039233, Final residual = 2.45921e-09, No Iterations 3
DILUPBiCGStab:  Solving for h, Initial residual = 0.00443596, Final residual = 2.00291e-09, No Iterations 3
min/max(T) = 300, 1045.04
GAMGPCG:  Solving for p_rgh, Initial residual = 0.0225329, Final residual = 1.82276e-07, No Iterations 5
diagonal:  Solving for rho, Initial residual = 0, Final residual = 0, No Iterations 0
time step continuity errors : sum local = 1.38889e-08, global = -3.24763e-09, cumulative = -1.42761e-07
GAMGPCG:  Solving for p_rgh, Initial residual = 0.00347238, Final residual = 4.81486e-07, No Iterations 4
diagonal:  Solving for rho, Initial residual = 0, Final residual = 0, No Iterations 0
time step continuity errors : sum local = 3.63146e-08, global = 5.12203e-09, cumulative = -1.37639e-07
DILUPBiCGStab:  Solving for omega, Initial residual = 0.000144458, Final residual = 9.97317e-10, No Iterations 2
DILUPBiCGStab:  Solving for k, Initial residual = 0.00972654, Final residual = 3.06732e-09, No Iterations 3

ExecutionTime = 5.23 s  ClockTime = 5 s

    Overall     = 0.00188633, 0.01
Time = 289

diagonal:  Solving for rho, Initial residual = 0, Final residual = 0, No Iterations 0

Execution time for mesh.update() = 0 s

DILUPBiCGStab:  Solving for Ux, Initial residual = 0.00679758, Final residual = 3.84582e-09, No Iterations 3
DILUPBiCGStab:  Solving for Uy, Initial residual = 0.00754956, Final residual = 3.55721e-09, No Iterations 3
DILUPBiCGStab:  Solving for O2, Initial residual = 0.00389428, Final residual = 2.61015e-09, No Iterations 3
DILUPBiCGStab:  Solving for H2O, Initial residual = 0.00389428, Final residual = 2.61016e-09, No Iterations 3
DILUPBiCGStab:  Solving for CH4, Initial residual = 0, Final residual = 0, No Iterations 0
DILUPBiCGStab:  Solving for CO2, Initial residual = 0.00389428, Final residual = 2.61016e-09, No Iterations 3
DILUPBiCGStab:  Solving for h, Initial residual = 0.00439298, Final residual = 2.09773e-09, No Iterations 3
min/max(T) = 300, 1045.04
GAMGPCG:  Solving for p_rgh, Initial residual = 0.0223085, Final residual = 1.99138e-07, No Iterations 5
diagonal:  Solving for rho, Initial residual = 0, Final residual = 0, No Iterations 0
time step continuity errors : sum local = 1.52007e-08, global = -1.59331e-09, cumulative = -1.39232e-07
GAMGPCG:  Solving for p_rgh, Initial residual = 0.00357071, Final residual = 5.05725e-07, No Iterations 4
diagonal:  Solving for rho, Initial residual = 0, Final residual = 0, No Iterations 0
time step continuity errors : sum local = 3.8094e-08, global = 5.45357e-09, cumulative = -1.33779e-07
DILUPBiCGStab:  Solving for omega, Initial residual = 0.000142492, Final residual = 1.02024e-09, No Iterations 2
DILUPBiCGStab:  Solving for k, Initial residual = 0.00963136, Final residual = 2.99844e-09, No Iterations 3

ExecutionTime = 5.35 s  ClockTime = 5 s

    Overall     = 0.00188556, 0.01
Time = 290

diagonal:  Solving for rho, Initial residual = 0, Final residual = 0, No Iterations 0

Execution time for mesh.update() = 0 s

DILUPBiCGStab:  Solving for Ux, Initial residual = 0.00680204, Final residual = 4.18444e-09, No Iterations 3
DILUPBiCGStab:  Solving for Uy, Initial residual = 0.00750362, Final residual = 3.71042e-09, No Iterations 3
GAMGPCG:  Solving for G, Initial residual = 0.172535, Final residual = 9.16082e-05, No Iterations 7
DILUPBiCGStab:  Solving for O2, Initial residual = 0.00386376, Final residual = 2.49138e-09, No Iterations 3
DILUPBiCGStab:  Solving for H2O, Initial residual = 0.00386376, Final residual = 2.49139e-09, No Iterations 3
DILUPBiCGStab:  Solving for CH4, Initial residual = 0, Final residual = 0, No Iterations 0
DILUPBiCGStab:  Solving for CO2, Initial residual = 0.00386376, Final residual = 2.49139e-09, No Iterations 3
DILUPBiCGStab:  Solving for h, Initial residual = 0.00435547, Final residual = 2.04912e-09, No Iterations 3
min/max(T) = 300, 1045.04
GAMGPCG:  Solving for p_rgh, Initial residual = 0.0224957, Final residual = 1.60785e-07, No Iterations 5
diagonal:  Solving for rho, Initial residual = 0, Final residual = 0, No Iterations 0
time step continuity errors : sum local = 1.25225e-08, global = -3.59813e-09, cumulative = -1.37377e-07
GAMGPCG:  Solving for p_rgh, Initial residual = 0.00359432, Final residual = 4.9489e-07, No Iterations 4
diagonal:  Solving for rho, Initial residual = 0, Final residual = 0, No Iterations 0
time step continuity errors : sum local = 3.73641e-08, global = 4.72119e-09, cumulative = -1.32656e-07
DILUPBiCGStab:  Solving for omega, Initial residual = 0.000143341, Final residual = 1.03935e-09, No Iterations 2
DILUPBiCGStab:  Solving for k, Initial residual = 0.00954392, Final residual = 2.84405e-09, No Iterations 3

ExecutionTime = 5.61 s  ClockTime = 5 s

    Overall     = 0.00188507, 0.01
Time = 291

diagonal:  Solving for rho, Initial residual = 0, Final residual = 0, No Iterations 0

Execution time for mesh.update() = 0 s

DILUPBiCGStab:  Solving for Ux, Initial residual = 0.00680079, Final residual = 4.20492e-09, No Iterations 3
DILUPBiCGStab:  Solving for Uy, Initial residual = 0.00747105, Final residual = 3.57815e-09, No Iterations 3
DILUPBiCGStab:  Solving for O2, Initial residual = 0.00383036, Final residual = 2.55958e-09, No Iterations 3
DILUPBiCGStab:  Solving for H2O, Initial residual = 0.00383037, Final residual = 2.55959e-09, No Iterations 3
DILUPBiCGStab:  Solving for CH4, Initial residual = 0, Final residual = 0, No Iterations 0
DILUPBiCGStab:  Solving for CO2, Initial residual = 0.00383037, Final residual = 2.55959e-09, No Iterations 3
DILUPBiCGStab:  Solving for h, Initial residual = 0.00431848, Final residual = 2.03307e-09, No Iterations 3
min/max(T) = 300, 1045.04
GAMGPCG:  Solving for p_rgh, Initial residual = 0.0229454, Final residual = 1.50601e-07, No Iterations 5
diagonal:  Solving for rho, Initial residual = 0, Final residual = 0, No Iterations 0
time step continuity errors : sum local = 1.18417e-08, global = -8.07977e-10, cumulative = -1.33464e-07
GAMGPCG:  Solving for p_rgh, Initial residual = 0.00348894, Final residual = 4.83195e-07, No Iterations 4
diagonal:  Solving for rho, Initial residual = 0, Final residual = 0, No Iterations 0
time step continuity errors : sum local = 3.69873e-08, global = 4.3777e-09, cumulative = -1.29086e-07
DILUPBiCGStab:  Solving for omega, Initial residual = 0.000140007, Final residual = 1.09505e-09, No Iterations 2
DILUPBiCGStab:  Solving for k, Initial residual = 0.00945596, Final residual = 2.53062e-09, No Iterations 3

ExecutionTime = 5.73 s  ClockTime = 6 s

    Overall     = 0.00188426, 0.01
Time = 292

diagonal:  Solving for rho, Initial residual = 0, Final residual = 0, No Iterations 0

Execution time for mesh.update() = 0 s

DILUPBiCGStab:  Solving for Ux, Initial residual = 0.00680241, Final residual = 4.33004e-09, No Iterations 3
DILUPBiCGStab:  Solving for Uy, Initial residual = 0.00745959, Final residual = 3.62595e-09, No Iterations 3
DILUPBiCGStab:  Solving for O2, Initial residual = 0.00378994, Final residual = 2.37236e-09, No Iterations 3
DILUPBiCGStab:  Solving for H2O, Initial residual = 0.00378994, Final residual = 2.37236e-09, No Iterations 3
DILUPBiCGStab:  Solving for CH4, Initial residual = 0, Final residual = 0, No Iterations 0
DILUPBiCGStab:  Solving for CO2, Initial residual = 0.00378994, Final residual = 2.37236e-09, No Iterations 3
DILUPBiCGStab:  Solving for h, Initial residual = 0.00426798, Final residual = 1.89922e-09, No Iterations 3
min/max(T) = 300, 1045.04
GAMGPCG:  Solving for p_rgh, Initial residual = 0.0223477, Final residual = 1.43011e-07, No Iterations 5
diagonal:  Solving for rho, Initial residual = 0, Final residual = 0, No Iterations 0
time step continuity errors : sum local = 1.12116e-08, global = -3.02869e-09, cumulative = -1.32115e-07
GAMGPCG:  Solving for p_rgh, Initial residual = 0.00364152, Final residual = 4.46061e-07, No Iterations 4
diagonal:  Solving for rho, Initial residual = 0, Final residual = 0, No Iterations 0
time step continuity errors : sum local = 3.41169e-08, global = 3.91327e-09, cumulative = -1.28201e-07
DILUPBiCGStab:  Solving for omega, Initial residual = 0.000141234, Final residual = 1.0659e-09, No Iterations 2
DILUPBiCGStab:  Solving for k, Initial residual = 0.00939485, Final residual = 2.45156e-09, No Iterations 3

ExecutionTime = 5.85 s  ClockTime = 6 s

    Overall     = 0.00188201, 0.01
Time = 293

diagonal:  Solving for rho, Initial residual = 0, Final residual = 0, No Iterations 0

Execution time for mesh.update() = 0 s

[...]
DILUPBiCGStab:  Solving for Uy, Initial residual = 0.00409845, Final residual = 7.42534e-09, No Iterations 3
GAMGPCG:  Solving for G, Initial residual = 0.210788, Final residual = 2.77929e-05, No Iterations 6
DILUPBiCGStab:  Solving for O2, Initial residual = 0.00197244, Final residual = 3.18936e-09, No Iterations 3
DILUPBiCGStab:  Solving for H2O, Initial residual = 0.00197244, Final residual = 3.18936e-09, No Iterations 3
DILUPBiCGStab:  Solving for CH4, Initial residual = 0, Final residual = 0, No Iterations 0
DILUPBiCGStab:  Solving for CO2, Initial residual = 0.00197244, Final residual = 3.18936e-09, No Iterations 3
DILUPBiCGStab:  Solving for h, Initial residual = 0.00223275, Final residual = 3.47229e-09, No Iterations 3
min/max(T) = 300, 1045.04
GAMGPCG:  Solving for p_rgh, Initial residual = 0.0208757, Final residual = 1.75677e-07, No Iterations 5
diagonal:  Solving for rho, Initial residual = 0, Final residual = 0, No Iterations 0
time step continuity errors : sum local = 5.59947e-09, global = -5.81285e-12, cumulative = 2.85703e-06
GAMGPCG:  Solving for p_rgh, Initial residual = 0.00351182, Final residual = 4.95967e-07, No Iterations 4
diagonal:  Solving for rho, Initial residual = 0, Final residual = 0, No Iterations 0
time step continuity errors : sum local = 1.56711e-08, global = 3.11509e-10, cumulative = 2.85734e-06
DILUPBiCGStab:  Solving for omega, Initial residual = 8.42594e-05, Final residual = 2.25126e-09, No Iterations 2
DILUPBiCGStab:  Solving for k, Initial residual = 0.00387285, Final residual = 5.1309e-09, No Iterations 3

ExecutionTime = 299.29 s  ClockTime = 299 s

    Overall     = 0.00124706, 0.01
Time = 2491

diagonal:  Solving for rho, Initial residual = 0, Final residual = 0, No Iterations 0

Execution time for mesh.update() = 0 s

DILUPBiCGStab:  Solving for Ux, Initial residual = 0.00517218, Final residual = 6.71752e-09, No Iterations 3
DILUPBiCGStab:  Solving for Uy, Initial residual = 0.00410997, Final residual = 6.49585e-09, No Iterations 3
DILUPBiCGStab:  Solving for O2, Initial residual = 0.00198058, Final residual = 3.18756e-09, No Iterations 3
DILUPBiCGStab:  Solving for H2O, Initial residual = 0.00198058, Final residual = 3.18756e-09, No Iterations 3
DILUPBiCGStab:  Solving for CH4, Initial residual = 0, Final residual = 0, No Iterations 0
DILUPBiCGStab:  Solving for CO2, Initial residual = 0.00198058, Final residual = 3.18756e-09, No Iterations 3
DILUPBiCGStab:  Solving for h, Initial residual = 0.00224625, Final residual = 3.50271e-09, No Iterations 3
min/max(T) = 300, 1045.04
GAMGPCG:  Solving for p_rgh, Initial residual = 0.0212597, Final residual = 2.23407e-07, No Iterations 5
diagonal:  Solving for rho, Initial residual = 0, Final residual = 0, No Iterations 0
time step continuity errors : sum local = 7.13294e-09, global = -3.59708e-10, cumulative = 2.85698e-06
GAMGPCG:  Solving for p_rgh, Initial residual = 0.00369098, Final residual = 4.41914e-07, No Iterations 4
diagonal:  Solving for rho, Initial residual = 0, Final residual = 0, No Iterations 0
time step continuity errors : sum local = 1.42995e-08, global = 7.67206e-10, cumulative = 2.85774e-06
DILUPBiCGStab:  Solving for omega, Initial residual = 8.76084e-05, Final residual = 2.46017e-09, No Iterations 2
DILUPBiCGStab:  Solving for k, Initial residual = 0.00390944, Final residual = 5.18697e-09, No Iterations 3
bounding k, min: -0.000256418 max: 0.0341568 average: 0.00388286

ExecutionTime = 299.41 s  ClockTime = 299 s

    Overall     = 0.00123904, 0.01
Time = 2492

diagonal:  Solving for rho, Initial residual = 0, Final residual = 0, No Iterations 0

Execution time for mesh.update() = 0 s

DILUPBiCGStab:  Solving for Ux, Initial residual = 0.00520666, Final residual = 6.61995e-09, No Iterations 3
DILUPBiCGStab:  Solving for Uy, Initial residual = 0.00418862, Final residual = 6.97216e-09, No Iterations 3
DILUPBiCGStab:  Solving for O2, Initial residual = 0.00199417, Final residual = 3.34521e-09, No Iterations 3
DILUPBiCGStab:  Solving for H2O, Initial residual = 0.00199417, Final residual = 3.34521e-09, No Iterations 3
DILUPBiCGStab:  Solving for CH4, Initial residual = 0, Final residual = 0, No Iterations 0
DILUPBiCGStab:  Solving for CO2, Initial residual = 0.00199417, Final residual = 3.34521e-09, No Iterations 3
DILUPBiCGStab:  Solving for h, Initial residual = 0.00225865, Final residual = 3.68391e-09, No Iterations 3
min/max(T) = 300, 1045.04
GAMGPCG:  Solving for p_rgh, Initial residual = 0.0211534, Final residual = 2.0158e-07, No Iterations 5
diagonal:  Solving for rho, Initial residual = 0, Final residual = 0, No Iterations 0
time step continuity errors : sum local = 6.5115e-09, global = 1.28107e-09, cumulative = 2.85903e-06
GAMGPCG:  Solving for p_rgh, Initial residual = 0.00357261, Final residual = 4.48515e-07, No Iterations 4
diagonal:  Solving for rho, Initial residual = 0, Final residual = 0, No Iterations 0
time step continuity errors : sum local = 1.44883e-08, global = 1.01532e-09, cumulative = 2.86004e-06
DILUPBiCGStab:  Solving for omega, Initial residual = 8.75378e-05, Final residual = 2.42218e-09, No Iterations 2
DILUPBiCGStab:  Solving for k, Initial residual = 0.00392022, Final residual = 5.21689e-09, No Iterations 3

ExecutionTime = 299.53 s  ClockTime = 299 s

    Overall     = 0.00123729, 0.01
Time = 2493

diagonal:  Solving for rho, Initial residual = 0, Final residual = 0, No Iterations 0

Execution time for mesh.update() = 0 s

DILUPBiCGStab:  Solving for Ux, Initial residual = 0.00526124, Final residual = 6.97653e-09, No Iterations 3
DILUPBiCGStab:  Solving for Uy, Initial residual = 0.00420326, Final residual = 6.77661e-09, No Iterations 3
DILUPBiCGStab:  Solving for O2, Initial residual = 0.00202373, Final residual = 3.3016e-09, No Iterations 3
DILUPBiCGStab:  Solving for H2O, Initial residual = 0.00202373, Final residual = 3.3016e-09, No Iterations 3
DILUPBiCGStab:  Solving for CH4, Initial residual = 0, Final residual = 0, No Iterations 0
DILUPBiCGStab:  Solving for CO2, Initial residual = 0.00202373, Final residual = 3.3016e-09, No Iterations 3
DILUPBiCGStab:  Solving for h, Initial residual = 0.00230305, Final residual = 3.61855e-09, No Iterations 3
min/max(T) = 300, 1045.04
GAMGPCG:  Solving for p_rgh, Initial residual = 0.0226414, Final residual = 2.35488e-07, No Iterations 5
diagonal:  Solving for rho, Initial residual = 0, Final residual = 0, No Iterations 0
time step continuity errors : sum local = 7.41076e-09, global = 9.12754e-10, cumulative = 2.86095e-06
GAMGPCG:  Solving for p_rgh, Initial residual = 0.00370377, Final residual = 4.05134e-07, No Iterations 4
diagonal:  Solving for rho, Initial residual = 0, Final residual = 0, No Iterations 0
time step continuity errors : sum local = 1.30078e-08, global = 2.3553e-10, cumulative = 2.86119e-06
DILUPBiCGStab:  Solving for omega, Initial residual = 8.96242e-05, Final residual = 2.2565e-09, No Iterations 2
DILUPBiCGStab:  Solving for k, Initial residual = 0.00391726, Final residual = 5.29497e-09, No Iterations 3

ExecutionTime = 299.65 s  ClockTime = 299 s

    Overall     = 0.0012283, 0.01
Time = 2494

diagonal:  Solving for rho, Initial residual = 0, Final residual = 0, No Iterations 0

Execution time for mesh.update() = 0 s

DILUPBiCGStab:  Solving for Ux, Initial residual = 0.00530211, Final residual = 7.14199e-09, No Iterations 3
DILUPBiCGStab:  Solving for Uy, Initial residual = 0.00425333, Final residual = 6.56215e-09, No Iterations 3
DILUPBiCGStab:  Solving for O2, Initial residual = 0.00203739, Final residual = 3.45806e-09, No Iterations 3
DILUPBiCGStab:  Solving for H2O, Initial residual = 0.00203739, Final residual = 3.45806e-09, No Iterations 3
DILUPBiCGStab:  Solving for CH4, Initial residual = 0, Final residual = 0, No Iterations 0
DILUPBiCGStab:  Solving for CO2, Initial residual = 0.00203739, Final residual = 3.45806e-09, No Iterations 3
DILUPBiCGStab:  Solving for h, Initial residual = 0.00231681, Final residual = 3.77445e-09, No Iterations 3
min/max(T) = 300, 1045.04
GAMGPCG:  Solving for p_rgh, Initial residual = 0.0232517, Final residual = 1.83682e-07, No Iterations 5
diagonal:  Solving for rho, Initial residual = 0, Final residual = 0, No Iterations 0
time step continuity errors : sum local = 5.89545e-09, global = 1.02016e-09, cumulative = 2.86221e-06
GAMGPCG:  Solving for p_rgh, Initial residual = 0.00383631, Final residual = 5.1694e-07, No Iterations 4
diagonal:  Solving for rho, Initial residual = 0, Final residual = 0, No Iterations 0
time step continuity errors : sum local = 1.66521e-08, global = -7.11064e-11, cumulative = 2.86214e-06
DILUPBiCGStab:  Solving for omega, Initial residual = 8.86004e-05, Final residual = 2.07904e-09, No Iterations 2
DILUPBiCGStab:  Solving for k, Initial residual = 0.00390841, Final residual = 5.3393e-09, No Iterations 3

ExecutionTime = 299.77 s  ClockTime = 300 s

    Overall     = 0.00122368, 0.01
Time = 2495

diagonal:  Solving for rho, Initial residual = 0, Final residual = 0, No Iterations 0

Execution time for mesh.update() = 0 s

DILUPBiCGStab:  Solving for Ux, Initial residual = 0.00540658, Final residual = 7.21511e-09, No Iterations 3
DILUPBiCGStab:  Solving for Uy, Initial residual = 0.00433465, Final residual = 6.36416e-09, No Iterations 3
DILUPBiCGStab:  Solving for O2, Initial residual = 0.0020613, Final residual = 3.46565e-09, No Iterations 3
DILUPBiCGStab:  Solving for H2O, Initial residual = 0.0020613, Final residual = 3.46565e-09, No Iterations 3
DILUPBiCGStab:  Solving for CH4, Initial residual = 0, Final residual = 0, No Iterations 0
DILUPBiCGStab:  Solving for CO2, Initial residual = 0.0020613, Final residual = 3.46565e-09, No Iterations 3
DILUPBiCGStab:  Solving for h, Initial residual = 0.00234862, Final residual = 3.75708e-09, No Iterations 3
min/max(T) = 300, 1045.04
GAMGPCG:  Solving for p_rgh, Initial residual = 0.0246668, Final residual = 1.48535e-07, No Iterations 5
diagonal:  Solving for rho, Initial residual = 0, Final residual = 0, No Iterations 0
time step continuity errors : sum local = 4.84763e-09, global = -7.84799e-10, cumulative = 2.86135e-06
GAMGPCG:  Solving for p_rgh, Initial residual = 0.00381046, Final residual = 5.33197e-07, No Iterations 4
diagonal:  Solving for rho, Initial residual = 0, Final residual = 0, No Iterations 0
time step continuity errors : sum local = 1.70179e-08, global = -1.03658e-10, cumulative = 2.86125e-06
DILUPBiCGStab:  Solving for omega, Initial residual = 8.77745e-05, Final residual = 2.05088e-09, No Iterations 2
DILUPBiCGStab:  Solving for k, Initial residual = 0.00391859, Final residual = 5.32981e-09, No Iterations 3

ExecutionTime = 299.89 s  ClockTime = 300 s

    Overall     = 0.00121412, 0.01
Time = 2496

diagonal:  Solving for rho, Initial residual = 0, Final residual = 0, No Iterations 0

Execution time for mesh.update() = 0 s

DILUPBiCGStab:  Solving for Ux, Initial residual = 0.00545696, Final residual = 7.31203e-09, No Iterations 3
DILUPBiCGStab:  Solving for Uy, Initial residual = 0.00437126, Final residual = 6.4819e-09, No Iterations 3
DILUPBiCGStab:  Solving for O2, Initial residual = 0.00207366, Final residual = 3.55095e-09, No Iterations 3
DILUPBiCGStab:  Solving for H2O, Initial residual = 0.00207366, Final residual = 3.55095e-09, No Iterations 3
DILUPBiCGStab:  Solving for CH4, Initial residual = 0, Final residual = 0, No Iterations 0
DILUPBiCGStab:  Solving for CO2, Initial residual = 0.00207366, Final residual = 3.55095e-09, No Iterations 3
DILUPBiCGStab:  Solving for h, Initial residual = 0.00236416, Final residual = 3.87581e-09, No Iterations 3
min/max(T) = 300, 1045.04
GAMGPCG:  Solving for p_rgh, Initial residual = 0.0237863, Final residual = 1.88559e-07, No Iterations 5
diagonal:  Solving for rho, Initial residual = 0, Final residual = 0, No Iterations 0
time step continuity errors : sum local = 5.99641e-09, global = 3.28884e-10, cumulative = 2.86158e-06
GAMGPCG:  Solving for p_rgh, Initial residual = 0.003957, Final residual = 5.93367e-07, No Iterations 4
diagonal:  Solving for rho, Initial residual = 0, Final residual = 0, No Iterations 0
time step continuity errors : sum local = 1.90729e-08, global = 2.6378e-11, cumulative = 2.86161e-06
DILUPBiCGStab:  Solving for omega, Initial residual = 8.9059e-05, Final residual = 2.08357e-09, No Iterations 2
DILUPBiCGStab:  Solving for k, Initial residual = 0.00392105, Final residual = 5.4583e-09, No Iterations 3

ExecutionTime = 300.01 s  ClockTime = 300 s

    Overall     = 0.00120955, 0.01
Time = 2497

diagonal:  Solving for rho, Initial residual = 0, Final residual = 0, No Iterations 0

Execution time for mesh.update() = 0 s

DILUPBiCGStab:  Solving for Ux, Initial residual = 0.00547435, Final residual = 7.31982e-09, No Iterations 3
DILUPBiCGStab:  Solving for Uy, Initial residual = 0.00430527, Final residual = 6.64735e-09, No Iterations 3
DILUPBiCGStab:  Solving for O2, Initial residual = 0.00207487, Final residual = 3.50909e-09, No Iterations 3
DILUPBiCGStab:  Solving for H2O, Initial residual = 0.00207487, Final residual = 3.50909e-09, No Iterations 3
DILUPBiCGStab:  Solving for CH4, Initial residual = 0, Final residual = 0, No Iterations 0
DILUPBiCGStab:  Solving for CO2, Initial residual = 0.00207487, Final residual = 3.50909e-09, No Iterations 3
DILUPBiCGStab:  Solving for h, Initial residual = 0.00236868, Final residual = 3.84781e-09, No Iterations 3
min/max(T) = 300, 1045.04
GAMGPCG:  Solving for p_rgh, Initial residual = 0.0245167, Final residual = 1.97651e-07, No Iterations 5
diagonal:  Solving for rho, Initial residual = 0, Final residual = 0, No Iterations 0
time step continuity errors : sum local = 6.32426e-09, global = 6.71154e-10, cumulative = 2.86228e-06
GAMGPCG:  Solving for p_rgh, Initial residual = 0.00393774, Final residual = 5.78951e-07, No Iterations 4
diagonal:  Solving for rho, Initial residual = 0, Final residual = 0, No Iterations 0
time step continuity errors : sum local = 1.86435e-08, global = -6.89862e-10, cumulative = 2.86159e-06
DILUPBiCGStab:  Solving for omega, Initial residual = 8.86446e-05, Final residual = 2.17489e-09, No Iterations 2
DILUPBiCGStab:  Solving for k, Initial residual = 0.00392076, Final residual = 5.41041e-09, No Iterations 3
bounding k, min: -0.000583309 max: 0.0339647 average: 0.00389309

ExecutionTime = 300.14 s  ClockTime = 300 s

    Overall     = 0.00120014, 0.01
Time = 2498

diagonal:  Solving for rho, Initial residual = 0, Final residual = 0, No Iterations 0

Execution time for mesh.update() = 0 s

DILUPBiCGStab:  Solving for Ux, Initial residual = 0.00543978, Final residual = 7.54848e-09, No Iterations 3
DILUPBiCGStab:  Solving for Uy, Initial residual = 0.0042833, Final residual = 7.03695e-09, No Iterations 3
DILUPBiCGStab:  Solving for O2, Initial residual = 0.00208773, Final residual = 3.28807e-09, No Iterations 3
DILUPBiCGStab:  Solving for H2O, Initial residual = 0.00208773, Final residual = 3.28807e-09, No Iterations 3
DILUPBiCGStab:  Solving for CH4, Initial residual = 0, Final residual = 0, No Iterations 0
DILUPBiCGStab:  Solving for CO2, Initial residual = 0.00208773, Final residual = 3.28807e-09, No Iterations 3
DILUPBiCGStab:  Solving for h, Initial residual = 0.00238479, Final residual = 3.59169e-09, No Iterations 3
min/max(T) = 300, 1045.04
GAMGPCG:  Solving for p_rgh, Initial residual = 0.0243934, Final residual = 2.35684e-07, No Iterations 5
diagonal:  Solving for rho, Initial residual = 0, Final residual = 0, No Iterations 0
time step continuity errors : sum local = 7.56528e-09, global = 8.82453e-10, cumulative = 2.86247e-06
GAMGPCG:  Solving for p_rgh, Initial residual = 0.00399127, Final residual = 6.16634e-07, No Iterations 4
diagonal:  Solving for rho, Initial residual = 0, Final residual = 0, No Iterations 0
time step continuity errors : sum local = 1.97648e-08, global = -1.36153e-09, cumulative = 2.86111e-06
DILUPBiCGStab:  Solving for omega, Initial residual = 8.79994e-05, Final residual = 2.02139e-09, No Iterations 2
DILUPBiCGStab:  Solving for k, Initial residual = 0.00389186, Final residual = 5.51687e-09, No Iterations 3

ExecutionTime = 300.26 s  ClockTime = 300 s

    Overall     = 0.00119698, 0.01
Time = 2499

diagonal:  Solving for rho, Initial residual = 0, Final residual = 0, No Iterations 0

Execution time for mesh.update() = 0 s

DILUPBiCGStab:  Solving for Ux, Initial residual = 0.00538736, Final residual = 7.8157e-09, No Iterations 3
DILUPBiCGStab:  Solving for Uy, Initial residual = 0.00421849, Final residual = 6.90789e-09, No Iterations 3
DILUPBiCGStab:  Solving for O2, Initial residual = 0.00207195, Final residual = 3.1313e-09, No Iterations 3
DILUPBiCGStab:  Solving for H2O, Initial residual = 0.00207195, Final residual = 3.1313e-09, No Iterations 3
DILUPBiCGStab:  Solving for CH4, Initial residual = 0, Final residual = 0, No Iterations 0
DILUPBiCGStab:  Solving for CO2, Initial residual = 0.00207195, Final residual = 3.1313e-09, No Iterations 3
DILUPBiCGStab:  Solving for h, Initial residual = 0.00236954, Final residual = 3.41317e-09, No Iterations 3
min/max(T) = 299.985, 1045.04
GAMGPCG:  Solving for p_rgh, Initial residual = 0.0236427, Final residual = 2.56421e-07, No Iterations 5
diagonal:  Solving for rho, Initial residual = 0, Final residual = 0, No Iterations 0
time step continuity errors : sum local = 8.25562e-09, global = 1.10702e-09, cumulative = 2.86221e-06
GAMGPCG:  Solving for p_rgh, Initial residual = 0.0039146, Final residual = 5.63232e-07, No Iterations 4
diagonal:  Solving for rho, Initial residual = 0, Final residual = 0, No Iterations 0
time step continuity errors : sum local = 1.82762e-08, global = -1.55425e-09, cumulative = 2.86066e-06
DILUPBiCGStab:  Solving for omega, Initial residual = 8.67917e-05, Final residual = 1.92835e-09, No Iterations 2
DILUPBiCGStab:  Solving for k, Initial residual = 0.0038706, Final residual = 5.02089e-09, No Iterations 3

ExecutionTime = 300.38 s  ClockTime = 300 s

    Overall     = 0.0011886, 0.01
Time = 2500

diagonal:  Solving for rho, Initial residual = 0, Final residual = 0, No Iterations 0

Execution time for mesh.update() = 0 s

DILUPBiCGStab:  Solving for Ux, Initial residual = 0.00535661, Final residual = 7.75287e-09, No Iterations 3
DILUPBiCGStab:  Solving for Uy, Initial residual = 0.00418675, Final residual = 6.98358e-09, No Iterations 3
GAMGPCG:  Solving for G, Initial residual = 0.236891, Final residual = 5.80478e-05, No Iterations 6
DILUPBiCGStab:  Solving for O2, Initial residual = 0.00208171, Final residual = 2.96342e-09, No Iterations 3
DILUPBiCGStab:  Solving for H2O, Initial residual = 0.00208171, Final residual = 2.96342e-09, No Iterations 3
DILUPBiCGStab:  Solving for CH4, Initial residual = 0, Final residual = 0, No Iterations 0
DILUPBiCGStab:  Solving for CO2, Initial residual = 0.00208171, Final residual = 2.96342e-09, No Iterations 3
DILUPBiCGStab:  Solving for h, Initial residual = 0.00237962, Final residual = 3.17893e-09, No Iterations 3
min/max(T) = 299.993, 1045.04
GAMGPCG:  Solving for p_rgh, Initial residual = 0.0236422, Final residual = 2.78344e-07, No Iterations 5
diagonal:  Solving for rho, Initial residual = 0, Final residual = 0, No Iterations 0
time step continuity errors : sum local = 8.94515e-09, global = 1.33827e-09, cumulative = 2.862e-06
GAMGPCG:  Solving for p_rgh, Initial residual = 0.00390268, Final residual = 5.5552e-07, No Iterations 4
diagonal:  Solving for rho, Initial residual = 0, Final residual = 0, No Iterations 0
time step continuity errors : sum local = 1.80616e-08, global = -1.72679e-09, cumulative = 2.86027e-06
DILUPBiCGStab:  Solving for omega, Initial residual = 8.5646e-05, Final residual = 1.85431e-09, No Iterations 2
DILUPBiCGStab:  Solving for k, Initial residual = 0.00386283, Final residual = 4.65248e-09, No Iterations 3

ExecutionTime = 300.63 s  ClockTime = 300 s


Patch Mean : 301.939
Patch Variance : 0.01732
Patch Gradient : 0.136023
End
