/*---------------------------------------------------------------------------*\
  =========                 |
  \\      /  F ield         | OpenFOAM: The Open Source CFD Toolbox
   \\    /   O peration     | Website:  https://openfoam.org
    \\  /    A nd           | Version:  dev
     \\/     M anipulation  |
\*---------------------------------------------------------------------------*/
Build  : dev-cabe48fb62c1
Exec   : fireDyMFoam
Date   : Apr 15 2019
Time   : 13:34:25
Host   : "Host"
PID    : 5321
I/O    : uncollated
Case   : /home/tesla/OpenFOAM/tesla-dev/run/rollerOpt_COBYLA_NEW
nProcs : 1
sigFpe : Enabling floating point exception trapping (FOAM_SIGFPE).
fileModificationChecking : Monitoring run-time modified files using timeStampMaster (fileModificationSkew 10)
allowSystemOperations : Allowing user-supplied system call operations

// * * * * * * * * * * * * * * * * * * * * * * * * * * * * * * * * * * * * * //
Create time

--> FOAM Warning : 
    From function void* Foam::dlOpen(const Foam::fileName&, bool)
    in file POSIX.C at line 1268
    dlopen error : libgroovyBC.so: cannot open shared object file: No such file or directory
--> FOAM Warning : 
    From function bool Foam::dlLibraryTable::open(const Foam::fileName&, bool)
    in file db/dynamicLibrary/dlLibraryTable/dlLibraryTable.C at line 105
    could not load "libgroovyBC.so"
Create mesh for time = 250

Selecting dynamicFvMesh dynamicRefineFvMesh
Detected 538 cells that are protected from refinement. Writing these to cellSet protectedCells.

PIMPLE: No convergence criteria found


PIMPLE: Operating solver in PISO mode


Initializing Solver

Selecting thermodynamics package 
{
    type            hePsiThermo;
    mixture         reactingMixture;
    transport       sutherland;
    thermo          janaf;
    energy          sensibleEnthalpy;
    equationOfState perfectGas;
    specie          specie;
}

Selecting chemistryReader foamChemistryReader
    elements not defined in "/home/tesla/OpenFOAM/tesla-dev/run/rollerOpt_COBYLA_NEW/constant/reactions"
Reading/calculating face flux field phi

No MRF models present

Selecting turbulence model type RAS
Selecting RAS turbulence model kOmegaSST
Selecting patchDistMethod meshWave
kOmegaSSTCoeffs
{
    delta           cubeRootVol;
    cubeRootVolCoeffs
    {
        deltaCoeff      1;
    }
    alphaK1         0.85;
    alphaK2         1;
    alphaOmega1     0.5;
    alphaOmega2     0.856;
    gamma1          0.555556;
    gamma2          0.44;
    beta1           0.075;
    beta2           0.0828;
    betaStar        0.09;
    a1              0.31;
    b1              1;
    c1              10;
    F3              false;
}

Selecting combustion model none<psiThermoCombustion>
--> FOAM Warning : 
    From function static Foam::autoPtr<T> Foam::combustionModel::New(typename CombustionModel::reactionThermo&, const Foam::compressibleTurbulenceModel&, const Foam::word&) [with CombustionModel = Foam::CombustionModel<Foam::psiReactionThermo>; typename CombustionModel::reactionThermo = Foam::psiReactionThermo]
    in file /home/tesla/OpenFOAM/OpenFOAM-dev/src/combustionModels/lnInclude/combustionModelTemplates.C at line 69
    Template parameters are no longer required when selecting a combustionModel. This information is now obtained directly from the thermodynamics. Actually selecting combustion model none.

Reading g

Reading hRef
Calculating field g.h


Reading pRef
Selecting radiationModel P1
Selecting absorptionEmissionModel greyMeanAbsorptionEmission
Selecting scatterModel none
Selecting sootModel none
Creating finite volume options from "system/fvOptions"

No finite volume options present
Using LTS

Starting time loop

Using dynamicCode for functionObject patchCalcs at line 64 in "/home/tesla/OpenFOAM/tesla-dev/run/rollerOpt_COBYLA_NEW/system/controlDict.functions.patchCalcs"
    Overall     = 0.00138834, 0.01
Time = 251

diagonal:  Solving for rho, Initial residual = 0, Final residual = 0, No Iterations 0

Execution time for mesh.update() = 0 s

DILUPBiCGStab:  Solving for Ux, Initial residual = 0.00527165, Final residual = 5.5339e-09, No Iterations 3
DILUPBiCGStab:  Solving for Uy, Initial residual = 0.00782436, Final residual = 5.94137e-09, No Iterations 3
GAMGPCG:  Solving for G, Initial residual = 0.0313544, Final residual = 5.70817e-05, No Iterations 4
DILUPBiCGStab:  Solving for O2, Initial residual = 0.00225228, Final residual = 1.92308e-09, No Iterations 3
DILUPBiCGStab:  Solving for H2O, Initial residual = 0.00225227, Final residual = 1.923e-09, No Iterations 3
DILUPBiCGStab:  Solving for CH4, Initial residual = 0, Final residual = 0, No Iterations 0
DILUPBiCGStab:  Solving for CO2, Initial residual = 0.00225227, Final residual = 1.92291e-09, No Iterations 3
DILUPBiCGStab:  Solving for h, Initial residual = 0.00260483, Final residual = 1.77709e-09, No Iterations 3
min/max(T) = 299.991, 1044.97
GAMGPCG:  Solving for p_rgh, Initial residual = 0.0187195, Final residual = 5.63197e-07, No Iterations 4
diagonal:  Solving for rho, Initial residual = 0, Final residual = 0, No Iterations 0
time step continuity errors : sum local = 2.46734e-06, global = -1.29562e-07, cumulative = -1.29562e-07
GAMGPCG:  Solving for p_rgh, Initial residual = 0.00234899, Final residual = 1.51236e-07, No Iterations 4
diagonal:  Solving for rho, Initial residual = 0, Final residual = 0, No Iterations 0
time step continuity errors : sum local = 2.46479e-06, global = -1.25617e-07, cumulative = -2.55179e-07
DILUPBiCGStab:  Solving for omega, Initial residual = 0.000102593, Final residual = 1.66848e-09, No Iterations 2
DILUPBiCGStab:  Solving for k, Initial residual = 0.00470592, Final residual = 3.11732e-09, No Iterations 3

ExecutionTime = 0.38 s  ClockTime = 1 s

    Overall     = 0.0013742, 0.01
Time = 252

diagonal:  Solving for rho, Initial residual = 0, Final residual = 0, No Iterations 0

Execution time for mesh.update() = 0.01 s

DILUPBiCGStab:  Solving for Ux, Initial residual = 0.00525805, Final residual = 5.66473e-09, No Iterations 3
DILUPBiCGStab:  Solving for Uy, Initial residual = 0.00782691, Final residual = 6.33653e-09, No Iterations 3
DILUPBiCGStab:  Solving for O2, Initial residual = 0.00224881, Final residual = 1.80353e-09, No Iterations 3
DILUPBiCGStab:  Solving for H2O, Initial residual = 0.00224882, Final residual = 1.80358e-09, No Iterations 3
DILUPBiCGStab:  Solving for CH4, Initial residual = 0, Final residual = 0, No Iterations 0
DILUPBiCGStab:  Solving for CO2, Initial residual = 0.00224882, Final residual = 1.80356e-09, No Iterations 3
DILUPBiCGStab:  Solving for h, Initial residual = 0.00260696, Final residual = 1.71191e-09, No Iterations 3
min/max(T) = 299.993, 1044.97
GAMGPCG:  Solving for p_rgh, Initial residual = 0.018566, Final residual = 5.40813e-07, No Iterations 4
diagonal:  Solving for rho, Initial residual = 0, Final residual = 0, No Iterations 0
time step continuity errors : sum local = 3.37334e-08, global = -1.70509e-09, cumulative = -2.56884e-07
GAMGPCG:  Solving for p_rgh, Initial residual = 0.00226447, Final residual = 1.70133e-07, No Iterations 4
diagonal:  Solving for rho, Initial residual = 0, Final residual = 0, No Iterations 0
time step continuity errors : sum local = 1.04237e-08, global = 9.78933e-10, cumulative = -2.55905e-07
DILUPBiCGStab:  Solving for omega, Initial residual = 0.000102511, Final residual = 1.60412e-09, No Iterations 2
DILUPBiCGStab:  Solving for k, Initial residual = 0.0047125, Final residual = 3.43281e-09, No Iterations 3

ExecutionTime = 0.5 s  ClockTime = 1 s

    Overall     = 0.00136629, 0.01
Time = 253

diagonal:  Solving for rho, Initial residual = 0, Final residual = 0, No Iterations 0

Execution time for mesh.update() = 0 s

DILUPBiCGStab:  Solving for Ux, Initial residual = 0.00525278, Final residual = 5.71333e-09, No Iterations 3
DILUPBiCGStab:  Solving for Uy, Initial residual = 0.00779379, Final residual = 5.78516e-09, No Iterations 3
DILUPBiCGStab:  Solving for O2, Initial residual = 0.00224326, Final residual = 1.90676e-09, No Iterations 3
DILUPBiCGStab:  Solving for H2O, Initial residual = 0.00224327, Final residual = 1.90682e-09, No Iterations 3
DILUPBiCGStab:  Solving for CH4, Initial residual = 0, Final residual = 0, No Iterations 0
DILUPBiCGStab:  Solving for CO2, Initial residual = 0.00224327, Final residual = 1.90682e-09, No Iterations 3
DILUPBiCGStab:  Solving for h, Initial residual = 0.00261174, Final residual = 1.7424e-09, No Iterations 3
min/max(T) = 300, 1044.97
GAMGPCG:  Solving for p_rgh, Initial residual = 0.018467, Final residual = 6.09823e-07, No Iterations 4
diagonal:  Solving for rho, Initial residual = 0, Final residual = 0, No Iterations 0
time step continuity errors : sum local = 3.8015e-08, global = -3.79439e-09, cumulative = -2.597e-07
GAMGPCG:  Solving for p_rgh, Initial residual = 0.00224339, Final residual = 1.5195e-07, No Iterations 4
diagonal:  Solving for rho, Initial residual = 0, Final residual = 0, No Iterations 0
time step continuity errors : sum local = 9.28832e-09, global = 5.37302e-10, cumulative = -2.59162e-07
DILUPBiCGStab:  Solving for omega, Initial residual = 0.000102545, Final residual = 1.6367e-09, No Iterations 2
DILUPBiCGStab:  Solving for k, Initial residual = 0.00471794, Final residual = 3.04201e-09, No Iterations 3

ExecutionTime = 0.61 s  ClockTime = 1 s

    Overall     = 0.00135306, 0.01
Time = 254

diagonal:  Solving for rho, Initial residual = 0, Final residual = 0, No Iterations 0

Execution time for mesh.update() = 0 s

DILUPBiCGStab:  Solving for Ux, Initial residual = 0.00523992, Final residual = 5.44525e-09, No Iterations 3
DILUPBiCGStab:  Solving for Uy, Initial residual = 0.00777937, Final residual = 5.9907e-09, No Iterations 3
DILUPBiCGStab:  Solving for O2, Initial residual = 0.00224704, Final residual = 2.04167e-09, No Iterations 3
DILUPBiCGStab:  Solving for H2O, Initial residual = 0.00224706, Final residual = 2.04169e-09, No Iterations 3
DILUPBiCGStab:  Solving for CH4, Initial residual = 0, Final residual = 0, No Iterations 0
DILUPBiCGStab:  Solving for CO2, Initial residual = 0.00224706, Final residual = 2.04169e-09, No Iterations 3
DILUPBiCGStab:  Solving for h, Initial residual = 0.00260974, Final residual = 1.8133e-09, No Iterations 3
min/max(T) = 300, 1044.97
GAMGPCG:  Solving for p_rgh, Initial residual = 0.0187193, Final residual = 5.88096e-07, No Iterations 4
diagonal:  Solving for rho, Initial residual = 0, Final residual = 0, No Iterations 0
time step continuity errors : sum local = 3.64824e-08, global = -1.84973e-09, cumulative = -2.61012e-07
GAMGPCG:  Solving for p_rgh, Initial residual = 0.00225333, Final residual = 1.57252e-07, No Iterations 4
diagonal:  Solving for rho, Initial residual = 0, Final residual = 0, No Iterations 0
time step continuity errors : sum local = 9.56492e-09, global = 5.37102e-10, cumulative = -2.60475e-07
DILUPBiCGStab:  Solving for omega, Initial residual = 0.000101934, Final residual = 1.58655e-09, No Iterations 2
DILUPBiCGStab:  Solving for k, Initial residual = 0.00472359, Final residual = 2.90311e-09, No Iterations 3

ExecutionTime = 0.73 s  ClockTime = 1 s

    Overall     = 0.00134786, 0.01
Time = 255

diagonal:  Solving for rho, Initial residual = 0, Final residual = 0, No Iterations 0

Execution time for mesh.update() = 0 s

DILUPBiCGStab:  Solving for Ux, Initial residual = 0.00523723, Final residual = 5.12777e-09, No Iterations 3
DILUPBiCGStab:  Solving for Uy, Initial residual = 0.00775901, Final residual = 5.91382e-09, No Iterations 3
DILUPBiCGStab:  Solving for O2, Initial residual = 0.0022415, Final residual = 1.96069e-09, No Iterations 3
DILUPBiCGStab:  Solving for H2O, Initial residual = 0.00224152, Final residual = 1.96071e-09, No Iterations 3
DILUPBiCGStab:  Solving for CH4, Initial residual = 0, Final residual = 0, No Iterations 0
DILUPBiCGStab:  Solving for CO2, Initial residual = 0.00224152, Final residual = 1.96071e-09, No Iterations 3
DILUPBiCGStab:  Solving for h, Initial residual = 0.00261375, Final residual = 1.81184e-09, No Iterations 3
min/max(T) = 300, 1044.97
GAMGPCG:  Solving for p_rgh, Initial residual = 0.0188099, Final residual = 5.41534e-07, No Iterations 4
diagonal:  Solving for rho, Initial residual = 0, Final residual = 0, No Iterations 0
time step continuity errors : sum local = 3.37203e-08, global = -2.70867e-09, cumulative = -2.63184e-07
GAMGPCG:  Solving for p_rgh, Initial residual = 0.00222442, Final residual = 1.46831e-07, No Iterations 4
diagonal:  Solving for rho, Initial residual = 0, Final residual = 0, No Iterations 0
time step continuity errors : sum local = 8.94487e-09, global = 2.2946e-10, cumulative = -2.62954e-07
DILUPBiCGStab:  Solving for omega, Initial residual = 0.000101856, Final residual = 1.54077e-09, No Iterations 2
DILUPBiCGStab:  Solving for k, Initial residual = 0.00471237, Final residual = 3.10062e-09, No Iterations 3

ExecutionTime = 0.85 s  ClockTime = 1 s

    Overall     = 0.00134002, 0.01
Time = 256

diagonal:  Solving for rho, Initial residual = 0, Final residual = 0, No Iterations 0

Execution time for mesh.update() = 0 s

DILUPBiCGStab:  Solving for Ux, Initial residual = 0.00521773, Final residual = 4.78181e-09, No Iterations 3
DILUPBiCGStab:  Solving for Uy, Initial residual = 0.00775019, Final residual = 6.32648e-09, No Iterations 3
DILUPBiCGStab:  Solving for O2, Initial residual = 0.00224362, Final residual = 2.11201e-09, No Iterations 3
DILUPBiCGStab:  Solving for H2O, Initial residual = 0.00224364, Final residual = 2.11206e-09, No Iterations 3
DILUPBiCGStab:  Solving for CH4, Initial residual = 0, Final residual = 0, No Iterations 0
DILUPBiCGStab:  Solving for CO2, Initial residual = 0.00224364, Final residual = 2.11205e-09, No Iterations 3
DILUPBiCGStab:  Solving for h, Initial residual = 0.00261877, Final residual = 1.89341e-09, No Iterations 3
min/max(T) = 300, 1044.97
GAMGPCG:  Solving for p_rgh, Initial residual = 0.0187531, Final residual = 5.27106e-07, No Iterations 4
diagonal:  Solving for rho, Initial residual = 0, Final residual = 0, No Iterations 0
time step continuity errors : sum local = 3.24896e-08, global = -5.73277e-11, cumulative = -2.63011e-07
GAMGPCG:  Solving for p_rgh, Initial residual = 0.00226458, Final residual = 1.65111e-07, No Iterations 4
diagonal:  Solving for rho, Initial residual = 0, Final residual = 0, No Iterations 0
time step continuity errors : sum local = 1.0049e-08, global = 7.77236e-11, cumulative = -2.62934e-07
DILUPBiCGStab:  Solving for omega, Initial residual = 0.000101351, Final residual = 1.52356e-09, No Iterations 2
DILUPBiCGStab:  Solving for k, Initial residual = 0.00472311, Final residual = 2.99683e-09, No Iterations 3

ExecutionTime = 0.96 s  ClockTime = 1 s

    Overall     = 0.00133797, 0.01
Time = 257

diagonal:  Solving for rho, Initial residual = 0, Final residual = 0, No Iterations 0

Execution time for mesh.update() = 0 s

DILUPBiCGStab:  Solving for Ux, Initial residual = 0.00522333, Final residual = 4.64664e-09, No Iterations 3
DILUPBiCGStab:  Solving for Uy, Initial residual = 0.00773949, Final residual = 6.55911e-09, No Iterations 3
DILUPBiCGStab:  Solving for O2, Initial residual = 0.00223558, Final residual = 2.08144e-09, No Iterations 3
DILUPBiCGStab:  Solving for H2O, Initial residual = 0.0022356, Final residual = 2.0815e-09, No Iterations 3
DILUPBiCGStab:  Solving for CH4, Initial residual = 0, Final residual = 0, No Iterations 0
DILUPBiCGStab:  Solving for CO2, Initial residual = 0.0022356, Final residual = 2.08149e-09, No Iterations 3
DILUPBiCGStab:  Solving for h, Initial residual = 0.0026109, Final residual = 1.94542e-09, No Iterations 3
min/max(T) = 300, 1044.97
GAMGPCG:  Solving for p_rgh, Initial residual = 0.0186555, Final residual = 4.24751e-07, No Iterations 4
diagonal:  Solving for rho, Initial residual = 0, Final residual = 0, No Iterations 0
time step continuity errors : sum local = 2.63968e-08, global = -2.46303e-09, cumulative = -2.65397e-07
GAMGPCG:  Solving for p_rgh, Initial residual = 0.00225455, Final residual = 1.52587e-07, No Iterations 4
diagonal:  Solving for rho, Initial residual = 0, Final residual = 0, No Iterations 0
time step continuity errors : sum local = 9.28624e-09, global = 3.1951e-11, cumulative = -2.65365e-07
DILUPBiCGStab:  Solving for omega, Initial residual = 0.000102202, Final residual = 1.51726e-09, No Iterations 2
DILUPBiCGStab:  Solving for k, Initial residual = 0.00472793, Final residual = 3.43209e-09, No Iterations 3

ExecutionTime = 1.07 s  ClockTime = 2 s

    Overall     = 0.00133276, 0.01
Time = 258

diagonal:  Solving for rho, Initial residual = 0, Final residual = 0, No Iterations 0

Execution time for mesh.update() = 0 s

DILUPBiCGStab:  Solving for Ux, Initial residual = 0.00519363, Final residual = 4.37424e-09, No Iterations 3
DILUPBiCGStab:  Solving for Uy, Initial residual = 0.00769893, Final residual = 6.70171e-09, No Iterations 3
DILUPBiCGStab:  Solving for O2, Initial residual = 0.00223972, Final residual = 2.13664e-09, No Iterations 3
DILUPBiCGStab:  Solving for H2O, Initial residual = 0.00223974, Final residual = 2.1367e-09, No Iterations 3
DILUPBiCGStab:  Solving for CH4, Initial residual = 0, Final residual = 0, No Iterations 0
DILUPBiCGStab:  Solving for CO2, Initial residual = 0.00223974, Final residual = 2.13669e-09, No Iterations 3
DILUPBiCGStab:  Solving for h, Initial residual = 0.00261733, Final residual = 2.10995e-09, No Iterations 3
min/max(T) = 300, 1044.97
GAMGPCG:  Solving for p_rgh, Initial residual = 0.0187086, Final residual = 5.14391e-07, No Iterations 4
diagonal:  Solving for rho, Initial residual = 0, Final residual = 0, No Iterations 0
time step continuity errors : sum local = 3.17551e-08, global = 1.6194e-09, cumulative = -2.63745e-07
GAMGPCG:  Solving for p_rgh, Initial residual = 0.00218857, Final residual = 1.59154e-07, No Iterations 4
diagonal:  Solving for rho, Initial residual = 0, Final residual = 0, No Iterations 0
time step continuity errors : sum local = 9.6696e-09, global = 6.94257e-11, cumulative = -2.63676e-07
DILUPBiCGStab:  Solving for omega, Initial residual = 0.000102764, Final residual = 1.47264e-09, No Iterations 2
DILUPBiCGStab:  Solving for k, Initial residual = 0.00473298, Final residual = 5.44624e-09, No Iterations 3

ExecutionTime = 1.19 s  ClockTime = 2 s

    Overall     = 0.0013339, 0.01
Time = 259

diagonal:  Solving for rho, Initial residual = 0, Final residual = 0, No Iterations 0

Execution time for mesh.update() = 0 s

DILUPBiCGStab:  Solving for Ux, Initial residual = 0.00520035, Final residual = 4.53801e-09, No Iterations 3
DILUPBiCGStab:  Solving for Uy, Initial residual = 0.00768984, Final residual = 6.83616e-09, No Iterations 3
DILUPBiCGStab:  Solving for O2, Initial residual = 0.00223928, Final residual = 2.14809e-09, No Iterations 3
DILUPBiCGStab:  Solving for H2O, Initial residual = 0.00223929, Final residual = 2.14812e-09, No Iterations 3
DILUPBiCGStab:  Solving for CH4, Initial residual = 0, Final residual = 0, No Iterations 0
DILUPBiCGStab:  Solving for CO2, Initial residual = 0.00223929, Final residual = 2.14812e-09, No Iterations 3
DILUPBiCGStab:  Solving for h, Initial residual = 0.00261696, Final residual = 2.29026e-09, No Iterations 3
min/max(T) = 300, 1044.97
GAMGPCG:  Solving for p_rgh, Initial residual = 0.0191288, Final residual = 4.41823e-07, No Iterations 4
diagonal:  Solving for rho, Initial residual = 0, Final residual = 0, No Iterations 0
time step continuity errors : sum local = 2.71808e-08, global = -2.67284e-09, cumulative = -2.66349e-07
GAMGPCG:  Solving for p_rgh, Initial residual = 0.0022559, Final residual = 1.41352e-07, No Iterations 4
diagonal:  Solving for rho, Initial residual = 0, Final residual = 0, No Iterations 0
time step continuity errors : sum local = 8.63302e-09, global = -5.46431e-11, cumulative = -2.66403e-07
DILUPBiCGStab:  Solving for omega, Initial residual = 0.000101565, Final residual = 1.45263e-09, No Iterations 2
DILUPBiCGStab:  Solving for k, Initial residual = 0.00473904, Final residual = 5.55006e-09, No Iterations 3

ExecutionTime = 1.3 s  ClockTime = 2 s

    Overall     = 0.00133166, 0.01
Time = 260

diagonal:  Solving for rho, Initial residual = 0, Final residual = 0, No Iterations 0

Execution time for mesh.update() = 0 s

DILUPBiCGStab:  Solving for Ux, Initial residual = 0.00519136, Final residual = 4.52969e-09, No Iterations 3
DILUPBiCGStab:  Solving for Uy, Initial residual = 0.00767927, Final residual = 7.27065e-09, No Iterations 3
GAMGPCG:  Solving for G, Initial residual = 0.127703, Final residual = 7.5653e-05, No Iterations 5
DILUPBiCGStab:  Solving for O2, Initial residual = 0.00224481, Final residual = 2.16572e-09, No Iterations 3
DILUPBiCGStab:  Solving for H2O, Initial residual = 0.00224483, Final residual = 2.16572e-09, No Iterations 3
DILUPBiCGStab:  Solving for CH4, Initial residual = 0, Final residual = 0, No Iterations 0
DILUPBiCGStab:  Solving for CO2, Initial residual = 0.00224483, Final residual = 2.16572e-09, No Iterations 3
DILUPBiCGStab:  Solving for h, Initial residual = 0.00262751, Final residual = 2.37049e-09, No Iterations 3
min/max(T) = 300, 1044.97
GAMGPCG:  Solving for p_rgh, Initial residual = 0.0188346, Final residual = 5.48909e-07, No Iterations 4
diagonal:  Solving for rho, Initial residual = 0, Final residual = 0, No Iterations 0
time step continuity errors : sum local = 3.3659e-08, global = 1.52823e-09, cumulative = -2.64875e-07
GAMGPCG:  Solving for p_rgh, Initial residual = 0.00222465, Final residual = 1.50261e-07, No Iterations 4
diagonal:  Solving for rho, Initial residual = 0, Final residual = 0, No Iterations 0
time step continuity errors : sum local = 9.17516e-09, global = 1.32542e-10, cumulative = -2.64743e-07
DILUPBiCGStab:  Solving for omega, Initial residual = 0.000102398, Final residual = 1.47562e-09, No Iterations 2
DILUPBiCGStab:  Solving for k, Initial residual = 0.00474586, Final residual = 1.43648e-09, No Iterations 3

ExecutionTime = 1.55 s  ClockTime = 2 s

    Overall     = 0.00133581, 0.01
Time = 261

diagonal:  Solving for rho, Initial residual = 0, Final residual = 0, No Iterations 0

Execution time for mesh.update() = 0 s

DILUPBiCGStab:  Solving for Ux, Initial residual = 0.0051924, Final residual = 4.5589e-09, No Iterations 3
DILUPBiCGStab:  Solving for Uy, Initial residual = 0.00768773, Final residual = 7.62477e-09, No Iterations 3
DILUPBiCGStab:  Solving for O2, Initial residual = 0.0022568, Final residual = 2.28661e-09, No Iterations 3
DILUPBiCGStab:  Solving for H2O, Initial residual = 0.00225682, Final residual = 2.28661e-09, No Iterations 3
DILUPBiCGStab:  Solving for CH4, Initial residual = 0, Final residual = 0, No Iterations 0
DILUPBiCGStab:  Solving for CO2, Initial residual = 0.00225682, Final residual = 2.28661e-09, No Iterations 3
DILUPBiCGStab:  Solving for h, Initial residual = 0.00264167, Final residual = 2.52365e-09, No Iterations 3
min/max(T) = 300, 1044.97
GAMGPCG:  Solving for p_rgh, Initial residual = 0.0188287, Final residual = 5.34693e-07, No Iterations 4
diagonal:  Solving for rho, Initial residual = 0, Final residual = 0, No Iterations 0
time step continuity errors : sum local = 3.22547e-08, global = -1.92802e-09, cumulative = -2.66671e-07
GAMGPCG:  Solving for p_rgh, Initial residual = 0.00226944, Final residual = 1.51927e-07, No Iterations 4
diagonal:  Solving for rho, Initial residual = 0, Final residual = 0, No Iterations 0
time step continuity errors : sum local = 9.21111e-09, global = -1.52509e-10, cumulative = -2.66823e-07
DILUPBiCGStab:  Solving for omega, Initial residual = 0.000102431, Final residual = 1.43338e-09, No Iterations 2
DILUPBiCGStab:  Solving for k, Initial residual = 0.00474545, Final residual = 8.64433e-10, No Iterations 3

ExecutionTime = 1.67 s  ClockTime = 2 s

    Overall     = 0.00133752, 0.01
Time = 262

diagonal:  Solving for rho, Initial residual = 0, Final residual = 0, No Iterations 0

Execution time for mesh.update() = 0 s

DILUPBiCGStab:  Solving for Ux, Initial residual = 0.00517884, Final residual = 5.02102e-09, No Iterations 3
DILUPBiCGStab:  Solving for Uy, Initial residual = 0.0076652, Final residual = 9.13233e-09, No Iterations 3
DILUPBiCGStab:  Solving for O2, Initial residual = 0.0022615, Final residual = 2.18388e-09, No Iterations 3
DILUPBiCGStab:  Solving for H2O, Initial residual = 0.00226152, Final residual = 2.18388e-09, No Iterations 3
DILUPBiCGStab:  Solving for CH4, Initial residual = 0, Final residual = 0, No Iterations 0
DILUPBiCGStab:  Solving for CO2, Initial residual = 0.00226152, Final residual = 2.18387e-09, No Iterations 3
DILUPBiCGStab:  Solving for h, Initial residual = 0.0026546, Final residual = 2.33068e-09, No Iterations 3
min/max(T) = 300, 1044.97
GAMGPCG:  Solving for p_rgh, Initial residual = 0.018814, Final residual = 6.51705e-07, No Iterations 4
diagonal:  Solving for rho, Initial residual = 0, Final residual = 0, No Iterations 0
time step continuity errors : sum local = 3.93501e-08, global = 2.03412e-09, cumulative = -2.64789e-07
GAMGPCG:  Solving for p_rgh, Initial residual = 0.00229893, Final residual = 1.53603e-07, No Iterations 4
diagonal:  Solving for rho, Initial residual = 0, Final residual = 0, No Iterations 0
time step continuity errors : sum local = 9.36295e-09, global = 6.16434e-11, cumulative = -2.64727e-07
DILUPBiCGStab:  Solving for omega, Initial residual = 0.000103188, Final residual = 1.41901e-09, No Iterations 2
DILUPBiCGStab:  Solving for k, Initial residual = 0.00476971, Final residual = 2.00904e-11, No Iterations 4

ExecutionTime = 1.79 s  ClockTime = 2 s

    Overall     = 0.00134473, 0.01
Time = 263

diagonal:  Solving for rho, Initial residual = 0, Final residual = 0, No Iterations 0

Execution time for mesh.update() = 0 s

DILUPBiCGStab:  Solving for Ux, Initial residual = 0.00518372, Final residual = 5.25483e-09, No Iterations 3
DILUPBiCGStab:  Solving for Uy, Initial residual = 0.00763972, Final residual = 8.98125e-09, No Iterations 3
DILUPBiCGStab:  Solving for O2, Initial residual = 0.00226958, Final residual = 1.98036e-09, No Iterations 3
DILUPBiCGStab:  Solving for H2O, Initial residual = 0.0022696, Final residual = 1.98037e-09, No Iterations 3
DILUPBiCGStab:  Solving for CH4, Initial residual = 0, Final residual = 0, No Iterations 0
DILUPBiCGStab:  Solving for CO2, Initial residual = 0.0022696, Final residual = 1.98036e-09, No Iterations 3
DILUPBiCGStab:  Solving for h, Initial residual = 0.00266925, Final residual = 2.22794e-09, No Iterations 3
min/max(T) = 300, 1044.97
GAMGPCG:  Solving for p_rgh, Initial residual = 0.0189833, Final residual = 5.07786e-07, No Iterations 4
diagonal:  Solving for rho, Initial residual = 0, Final residual = 0, No Iterations 0
time step continuity errors : sum local = 3.02717e-08, global = -3.86933e-09, cumulative = -2.68597e-07
GAMGPCG:  Solving for p_rgh, Initial residual = 0.00226438, Final residual = 9.3121e-07, No Iterations 3
diagonal:  Solving for rho, Initial residual = 0, Final residual = 0, No Iterations 0
time step continuity errors : sum local = 5.56994e-08, global = -1.71128e-10, cumulative = -2.68768e-07
DILUPBiCGStab:  Solving for omega, Initial residual = 0.000103061, Final residual = 1.32002e-09, No Iterations 2
DILUPBiCGStab:  Solving for k, Initial residual = 0.00479936, Final residual = 6.18765e-09, No Iterations 3

ExecutionTime = 1.9 s  ClockTime = 2 s

    Overall     = 0.00134933, 0.01
Time = 264

diagonal:  Solving for rho, Initial residual = 0, Final residual = 0, No Iterations 0

Execution time for mesh.update() = 0 s

DILUPBiCGStab:  Solving for Ux, Initial residual = 0.00519077, Final residual = 5.963e-09, No Iterations 3
DILUPBiCGStab:  Solving for Uy, Initial residual = 0.0076428, Final residual = 9.43373e-09, No Iterations 3
DILUPBiCGStab:  Solving for O2, Initial residual = 0.00228046, Final residual = 2.06018e-09, No Iterations 3
DILUPBiCGStab:  Solving for H2O, Initial residual = 0.00228048, Final residual = 2.0602e-09, No Iterations 3
DILUPBiCGStab:  Solving for CH4, Initial residual = 0, Final residual = 0, No Iterations 0
DILUPBiCGStab:  Solving for CO2, Initial residual = 0.00228048, Final residual = 2.06019e-09, No Iterations 3
DILUPBiCGStab:  Solving for h, Initial residual = 0.00267986, Final residual = 2.36771e-09, No Iterations 3
min/max(T) = 300, 1044.97
GAMGPCG:  Solving for p_rgh, Initial residual = 0.0193705, Final residual = 6.67987e-07, No Iterations 4
diagonal:  Solving for rho, Initial residual = 0, Final residual = 0, No Iterations 0
time step continuity errors : sum local = 4.04503e-08, global = 2.58708e-09, cumulative = -2.66181e-07
GAMGPCG:  Solving for p_rgh, Initial residual = 0.0023065, Final residual = 1.56699e-07, No Iterations 4
diagonal:  Solving for rho, Initial residual = 0, Final residual = 0, No Iterations 0
time step continuity errors : sum local = 9.54187e-09, global = -9.48597e-11, cumulative = -2.66276e-07
DILUPBiCGStab:  Solving for omega, Initial residual = 0.000103571, Final residual = 1.31046e-09, No Iterations 2
DILUPBiCGStab:  Solving for k, Initial residual = 0.00482062, Final residual = 1.52896e-09, No Iterations 3

ExecutionTime = 2.02 s  ClockTime = 2 s

    Overall     = 0.00135807, 0.01
Time = 265

diagonal:  Solving for rho, Initial residual = 0, Final residual = 0, No Iterations 0

Execution time for mesh.update() = 0 s

DILUPBiCGStab:  Solving for Ux, Initial residual = 0.00519629, Final residual = 5.66028e-09, No Iterations 3
DILUPBiCGStab:  Solving for Uy, Initial residual = 0.00762146, Final residual = 8.63235e-09, No Iterations 3
DILUPBiCGStab:  Solving for O2, Initial residual = 0.00228521, Final residual = 1.82813e-09, No Iterations 3
DILUPBiCGStab:  Solving for H2O, Initial residual = 0.00228523, Final residual = 1.82813e-09, No Iterations 3
DILUPBiCGStab:  Solving for CH4, Initial residual = 0, Final residual = 0, No Iterations 0
DILUPBiCGStab:  Solving for CO2, Initial residual = 0.00228523, Final residual = 1.82813e-09, No Iterations 3
DILUPBiCGStab:  Solving for h, Initial residual = 0.00269051, Final residual = 2.03571e-09, No Iterations 3
min/max(T) = 300, 1044.97
GAMGPCG:  Solving for p_rgh, Initial residual = 0.0191142, Final residual = 6.02819e-07, No Iterations 4
diagonal:  Solving for rho, Initial residual = 0, Final residual = 0, No Iterations 0
time step continuity errors : sum local = 3.62434e-08, global = -1.82216e-09, cumulative = -2.68098e-07
GAMGPCG:  Solving for p_rgh, Initial residual = 0.00231145, Final residual = 9.27992e-07, No Iterations 3
diagonal:  Solving for rho, Initial residual = 0, Final residual = 0, No Iterations 0
time step continuity errors : sum local = 5.56324e-08, global = -7.92334e-11, cumulative = -2.68177e-07
DILUPBiCGStab:  Solving for omega, Initial residual = 0.000104002, Final residual = 1.32329e-09, No Iterations 2
DILUPBiCGStab:  Solving for k, Initial residual = 0.00483003, Final residual = 1.69456e-09, No Iterations 3

ExecutionTime = 2.13 s  ClockTime = 3 s

    Overall     = 0.0013648, 0.01
Time = 266

diagonal:  Solving for rho, Initial residual = 0, Final residual = 0, No Iterations 0

Execution time for mesh.update() = 0 s

DILUPBiCGStab:  Solving for Ux, Initial residual = 0.00519921, Final residual = 5.63356e-09, No Iterations 3
DILUPBiCGStab:  Solving for Uy, Initial residual = 0.00759353, Final residual = 9.83798e-09, No Iterations 3
DILUPBiCGStab:  Solving for O2, Initial residual = 0.00229412, Final residual = 1.682e-09, No Iterations 3
DILUPBiCGStab:  Solving for H2O, Initial residual = 0.00229413, Final residual = 1.68199e-09, No Iterations 3
DILUPBiCGStab:  Solving for CH4, Initial residual = 0, Final residual = 0, No Iterations 0
DILUPBiCGStab:  Solving for CO2, Initial residual = 0.00229413, Final residual = 1.68199e-09, No Iterations 3
DILUPBiCGStab:  Solving for h, Initial residual = 0.0027047, Final residual = 1.89333e-09, No Iterations 3
min/max(T) = 300, 1044.97
GAMGPCG:  Solving for p_rgh, Initial residual = 0.0193696, Final residual = 6.38018e-07, No Iterations 4
diagonal:  Solving for rho, Initial residual = 0, Final residual = 0, No Iterations 0
time step continuity errors : sum local = 3.84906e-08, global = 2.46488e-09, cumulative = -2.65712e-07
GAMGPCG:  Solving for p_rgh, Initial residual = 0.00230429, Final residual = 9.8247e-07, No Iterations 3
diagonal:  Solving for rho, Initial residual = 0, Final residual = 0, No Iterations 0
time step continuity errors : sum local = 5.84443e-08, global = -1.39401e-09, cumulative = -2.67106e-07
DILUPBiCGStab:  Solving for omega, Initial residual = 0.000104284, Final residual = 1.28054e-09, No Iterations 2
DILUPBiCGStab:  Solving for k, Initial residual = 0.00483868, Final residual = 5.89671e-09, No Iterations 3

ExecutionTime = 2.24 s  ClockTime = 3 s

    Overall     = 0.00137564, 0.01
Time = 267

diagonal:  Solving for rho, Initial residual = 0, Final residual = 0, No Iterations 0

Execution time for mesh.update() = 0 s

DILUPBiCGStab:  Solving for Ux, Initial residual = 0.0052344, Final residual = 5.06149e-09, No Iterations 3
DILUPBiCGStab:  Solving for Uy, Initial residual = 0.00761479, Final residual = 7.90349e-09, No Iterations 3
DILUPBiCGStab:  Solving for O2, Initial residual = 0.00230939, Final residual = 1.93093e-09, No Iterations 3
DILUPBiCGStab:  Solving for H2O, Initial residual = 0.0023094, Final residual = 1.93092e-09, No Iterations 3
DILUPBiCGStab:  Solving for CH4, Initial residual = 0, Final residual = 0, No Iterations 0
DILUPBiCGStab:  Solving for CO2, Initial residual = 0.0023094, Final residual = 1.93092e-09, No Iterations 3
DILUPBiCGStab:  Solving for h, Initial residual = 0.00272234, Final residual = 2.06624e-09, No Iterations 3
min/max(T) = 300, 1044.97
GAMGPCG:  Solving for p_rgh, Initial residual = 0.0195899, Final residual = 6.11652e-07, No Iterations 4
diagonal:  Solving for rho, Initial residual = 0, Final residual = 0, No Iterations 0
time step continuity errors : sum local = 3.67406e-08, global = -1.41589e-09, cumulative = -2.68522e-07
GAMGPCG:  Solving for p_rgh, Initial residual = 0.00240248, Final residual = 8.40821e-07, No Iterations 3
diagonal:  Solving for rho, Initial residual = 0, Final residual = 0, No Iterations 0
time step continuity errors : sum local = 5.06032e-08, global = -4.50616e-10, cumulative = -2.68973e-07
DILUPBiCGStab:  Solving for omega, Initial residual = 0.000105477, Final residual = 1.26525e-09, No Iterations 2
DILUPBiCGStab:  Solving for k, Initial residual = 0.00485093, Final residual = 7.89402e-09, No Iterations 3

ExecutionTime = 2.36 s  ClockTime = 3 s

    Overall     = 0.0013819, 0.01
Time = 268

diagonal:  Solving for rho, Initial residual = 0, Final residual = 0, No Iterations 0

Execution time for mesh.update() = 0 s

DILUPBiCGStab:  Solving for Ux, Initial residual = 0.00524124, Final residual = 4.60065e-09, No Iterations 3
DILUPBiCGStab:  Solving for Uy, Initial residual = 0.00756568, Final residual = 9.50511e-09, No Iterations 3
DILUPBiCGStab:  Solving for O2, Initial residual = 0.00232228, Final residual = 1.52755e-09, No Iterations 3
DILUPBiCGStab:  Solving for H2O, Initial residual = 0.00232229, Final residual = 1.52754e-09, No Iterations 3
DILUPBiCGStab:  Solving for CH4, Initial residual = 0, Final residual = 0, No Iterations 0
DILUPBiCGStab:  Solving for CO2, Initial residual = 0.00232229, Final residual = 1.52754e-09, No Iterations 3
DILUPBiCGStab:  Solving for h, Initial residual = 0.0027411, Final residual = 1.65063e-09, No Iterations 3
min/max(T) = 300, 1044.97
GAMGPCG:  Solving for p_rgh, Initial residual = 0.0202457, Final residual = 6.35478e-07, No Iterations 4
diagonal:  Solving for rho, Initial residual = 0, Final residual = 0, No Iterations 0
time step continuity errors : sum local = 3.83927e-08, global = 2.70895e-09, cumulative = -2.66264e-07
GAMGPCG:  Solving for p_rgh, Initial residual = 0.00235926, Final residual = 1.51091e-07, No Iterations 4
diagonal:  Solving for rho, Initial residual = 0, Final residual = 0, No Iterations 0
time step continuity errors : sum local = 8.95106e-09, global = -2.5658e-11, cumulative = -2.66289e-07
DILUPBiCGStab:  Solving for omega, Initial residual = 0.000105715, Final residual = 1.18129e-09, No Iterations 2
DILUPBiCGStab:  Solving for k, Initial residual = 0.00487406, Final residual = 3.0953e-09, No Iterations 3

ExecutionTime = 2.47 s  ClockTime = 3 s

    Overall     = 0.00139294, 0.01
Time = 269

diagonal:  Solving for rho, Initial residual = 0, Final residual = 0, No Iterations 0

Execution time for mesh.update() = 0 s

DILUPBiCGStab:  Solving for Ux, Initial residual = 0.0052595, Final residual = 4.14711e-09, No Iterations 3
DILUPBiCGStab:  Solving for Uy, Initial residual = 0.00755729, Final residual = 6.83808e-09, No Iterations 3
DILUPBiCGStab:  Solving for O2, Initial residual = 0.00233479, Final residual = 1.72672e-09, No Iterations 3
DILUPBiCGStab:  Solving for H2O, Initial residual = 0.00233481, Final residual = 1.72671e-09, No Iterations 3
DILUPBiCGStab:  Solving for CH4, Initial residual = 0, Final residual = 0, No Iterations 0
DILUPBiCGStab:  Solving for CO2, Initial residual = 0.00233481, Final residual = 1.72672e-09, No Iterations 3
DILUPBiCGStab:  Solving for h, Initial residual = 0.00275798, Final residual = 1.8791e-09, No Iterations 3
min/max(T) = 300, 1044.97
GAMGPCG:  Solving for p_rgh, Initial residual = 0.0195883, Final residual = 7.09186e-07, No Iterations 4
diagonal:  Solving for rho, Initial residual = 0, Final residual = 0, No Iterations 0
time step continuity errors : sum local = 4.26723e-08, global = 7.01997e-10, cumulative = -2.65587e-07
GAMGPCG:  Solving for p_rgh, Initial residual = 0.00243547, Final residual = 9.55594e-07, No Iterations 3
diagonal:  Solving for rho, Initial residual = 0, Final residual = 0, No Iterations 0
time step continuity errors : sum local = 5.69087e-08, global = 9.08749e-10, cumulative = -2.64679e-07
DILUPBiCGStab:  Solving for omega, Initial residual = 0.000105306, Final residual = 1.31565e-09, No Iterations 2
DILUPBiCGStab:  Solving for k, Initial residual = 0.0048935, Final residual = 2.98252e-09, No Iterations 3

ExecutionTime = 2.58 s  ClockTime = 3 s

    Overall     = 0.00139953, 0.01
Time = 270

diagonal:  Solving for rho, Initial residual = 0, Final residual = 0, No Iterations 0

Execution time for mesh.update() = 0 s

DILUPBiCGStab:  Solving for Ux, Initial residual = 0.00527911, Final residual = 4.24519e-09, No Iterations 3
DILUPBiCGStab:  Solving for Uy, Initial residual = 0.00753002, Final residual = 7.71398e-09, No Iterations 3
GAMGPCG:  Solving for G, Initial residual = 0.135591, Final residual = 3.62092e-05, No Iterations 6
DILUPBiCGStab:  Solving for O2, Initial residual = 0.00234957, Final residual = 1.51687e-09, No Iterations 3
DILUPBiCGStab:  Solving for H2O, Initial residual = 0.00234958, Final residual = 1.51686e-09, No Iterations 3
DILUPBiCGStab:  Solving for CH4, Initial residual = 0, Final residual = 0, No Iterations 0
DILUPBiCGStab:  Solving for CO2, Initial residual = 0.00234958, Final residual = 1.51686e-09, No Iterations 3
DILUPBiCGStab:  Solving for h, Initial residual = 0.00277312, Final residual = 1.65944e-09, No Iterations 3
min/max(T) = 300, 1044.97
GAMGPCG:  Solving for p_rgh, Initial residual = 0.0199224, Final residual = 6.11897e-07, No Iterations 4
diagonal:  Solving for rho, Initial residual = 0, Final residual = 0, No Iterations 0
time step continuity errors : sum local = 3.6808e-08, global = 1.74337e-09, cumulative = -2.62935e-07
GAMGPCG:  Solving for p_rgh, Initial residual = 0.00237691, Final residual = 1.66791e-07, No Iterations 4
diagonal:  Solving for rho, Initial residual = 0, Final residual = 0, No Iterations 0
time step continuity errors : sum local = 9.95828e-09, global = 2.02539e-10, cumulative = -2.62733e-07
DILUPBiCGStab:  Solving for omega, Initial residual = 0.000106959, Final residual = 1.32193e-09, No Iterations 2
DILUPBiCGStab:  Solving for k, Initial residual = 0.00492487, Final residual = 2.39812e-09, No Iterations 3

ExecutionTime = 2.84 s  ClockTime = 3 s

    Overall     = 0.00141103, 0.01
Time = 271

diagonal:  Solving for rho, Initial residual = 0, Final residual = 0, No Iterations 0

Execution time for mesh.update() = 0 s

DILUPBiCGStab:  Solving for Ux, Initial residual = 0.00528114, Final residual = 4.88999e-09, No Iterations 3
DILUPBiCGStab:  Solving for Uy, Initial residual = 0.00749637, Final residual = 5.37669e-09, No Iterations 3
DILUPBiCGStab:  Solving for O2, Initial residual = 0.00235887, Final residual = 1.79102e-09, No Iterations 3
DILUPBiCGStab:  Solving for H2O, Initial residual = 0.00235889, Final residual = 1.79101e-09, No Iterations 3
DILUPBiCGStab:  Solving for CH4, Initial residual = 0, Final residual = 0, No Iterations 0
DILUPBiCGStab:  Solving for CO2, Initial residual = 0.00235889, Final residual = 1.79102e-09, No Iterations 3
DILUPBiCGStab:  Solving for h, Initial residual = 0.00278533, Final residual = 1.79326e-09, No Iterations 3
min/max(T) = 300, 1044.97
GAMGPCG:  Solving for p_rgh, Initial residual = 0.0197018, Final residual = 7.09159e-07, No Iterations 4
diagonal:  Solving for rho, Initial residual = 0, Final residual = 0, No Iterations 0
time step continuity errors : sum local = 4.2685e-08, global = 4.28695e-10, cumulative = -2.62304e-07
GAMGPCG:  Solving for p_rgh, Initial residual = 0.0023633, Final residual = 1.86993e-07, No Iterations 4
diagonal:  Solving for rho, Initial residual = 0, Final residual = 0, No Iterations 0
time step continuity errors : sum local = 1.1021e-08, global = 6.31149e-10, cumulative = -2.61673e-07
DILUPBiCGStab:  Solving for omega, Initial residual = 0.000107273, Final residual = 1.44744e-09, No Iterations 2
DILUPBiCGStab:  Solving for k, Initial residual = 0.00494301, Final residual = 2.50383e-09, No Iterations 3

ExecutionTime = 2.95 s  ClockTime = 3 s

    Overall     = 0.00141947, 0.01
Time = 272

diagonal:  Solving for rho, Initial residual = 0, Final residual = 0, No Iterations 0

Execution time for mesh.update() = 0 s

DILUPBiCGStab:  Solving for Ux, Initial residual = 0.00531665, Final residual = 3.97162e-09, No Iterations 3
DILUPBiCGStab:  Solving for Uy, Initial residual = 0.00750607, Final residual = 6.54656e-09, No Iterations 3
DILUPBiCGStab:  Solving for O2, Initial residual = 0.00237227, Final residual = 1.63271e-09, No Iterations 3
DILUPBiCGStab:  Solving for H2O, Initial residual = 0.00237229, Final residual = 1.63271e-09, No Iterations 3
DILUPBiCGStab:  Solving for CH4, Initial residual = 0, Final residual = 0, No Iterations 0
DILUPBiCGStab:  Solving for CO2, Initial residual = 0.00237229, Final residual = 1.63271e-09, No Iterations 3
DILUPBiCGStab:  Solving for h, Initial residual = 0.00280751, Final residual = 1.67744e-09, No Iterations 3
min/max(T) = 300, 1044.97
GAMGPCG:  Solving for p_rgh, Initial residual = 0.0199536, Final residual = 4.89814e-07, No Iterations 4
diagonal:  Solving for rho, Initial residual = 0, Final residual = 0, No Iterations 0
time step continuity errors : sum local = 2.88872e-08, global = 1.08645e-09, cumulative = -2.60586e-07
GAMGPCG:  Solving for p_rgh, Initial residual = 0.00232665, Final residual = 1.74272e-07, No Iterations 4
diagonal:  Solving for rho, Initial residual = 0, Final residual = 0, No Iterations 0
time step continuity errors : sum local = 1.02517e-08, global = 4.51818e-10, cumulative = -2.60135e-07
DILUPBiCGStab:  Solving for omega, Initial residual = 0.000107511, Final residual = 1.35926e-09, No Iterations 2
DILUPBiCGStab:  Solving for k, Initial residual = 0.00496788, Final residual = 2.26991e-09, No Iterations 3

ExecutionTime = 3.07 s  ClockTime = 4 s

    Overall     = 0.00143161, 0.01
Time = 273

diagonal:  Solving for rho, Initial residual = 0, Final residual = 0, No Iterations 0

Execution time for mesh.update() = 0 s

DILUPBiCGStab:  Solving for Ux, Initial residual = 0.00530231, Final residual = 5.25081e-09, No Iterations 3
DILUPBiCGStab:  Solving for Uy, Initial residual = 0.00748543, Final residual = 5.07294e-09, No Iterations 3
DILUPBiCGStab:  Solving for O2, Initial residual = 0.00238811, Final residual = 1.75523e-09, No Iterations 3
DILUPBiCGStab:  Solving for H2O, Initial residual = 0.00238813, Final residual = 1.75523e-09, No Iterations 3
DILUPBiCGStab:  Solving for CH4, Initial residual = 0, Final residual = 0, No Iterations 0
DILUPBiCGStab:  Solving for CO2, Initial residual = 0.00238813, Final residual = 1.75523e-09, No Iterations 3
DILUPBiCGStab:  Solving for h, Initial residual = 0.00282447, Final residual = 1.98497e-09, No Iterations 3
min/max(T) = 300, 1044.97
GAMGPCG:  Solving for p_rgh, Initial residual = 0.0194082, Final residual = 6.59587e-07, No Iterations 4
diagonal:  Solving for rho, Initial residual = 0, Final residual = 0, No Iterations 0
time step continuity errors : sum local = 3.91234e-08, global = -2.70828e-10, cumulative = -2.60405e-07
GAMGPCG:  Solving for p_rgh, Initial residual = 0.0023198, Final residual = 9.70662e-07, No Iterations 3
diagonal:  Solving for rho, Initial residual = 0, Final residual = 0, No Iterations 0
time step continuity errors : sum local = 5.71299e-08, global = 1.19603e-09, cumulative = -2.59209e-07
DILUPBiCGStab:  Solving for omega, Initial residual = 0.000108596, Final residual = 1.38816e-09, No Iterations 2
DILUPBiCGStab:  Solving for k, Initial residual = 0.00499663, Final residual = 2.82208e-09, No Iterations 3

ExecutionTime = 3.19 s  ClockTime = 4 s

    Overall     = 0.00144128, 0.01
Time = 274

diagonal:  Solving for rho, Initial residual = 0, Final residual = 0, No Iterations 0

Execution time for mesh.update() = 0 s

DILUPBiCGStab:  Solving for Ux, Initial residual = 0.00533434, Final residual = 4.49047e-09, No Iterations 3
DILUPBiCGStab:  Solving for Uy, Initial residual = 0.0075093, Final residual = 6.13014e-09, No Iterations 3
DILUPBiCGStab:  Solving for O2, Initial residual = 0.00240137, Final residual = 1.64636e-09, No Iterations 3
DILUPBiCGStab:  Solving for H2O, Initial residual = 0.00240139, Final residual = 1.64636e-09, No Iterations 3
DILUPBiCGStab:  Solving for CH4, Initial residual = 0, Final residual = 0, No Iterations 0
DILUPBiCGStab:  Solving for CO2, Initial residual = 0.00240139, Final residual = 1.64636e-09, No Iterations 3
DILUPBiCGStab:  Solving for h, Initial residual = 0.00284507, Final residual = 1.73589e-09, No Iterations 3
min/max(T) = 300, 1044.97
GAMGPCG:  Solving for p_rgh, Initial residual = 0.0196686, Final residual = 5.44668e-07, No Iterations 4
diagonal:  Solving for rho, Initial residual = 0, Final residual = 0, No Iterations 0
time step continuity errors : sum local = 3.2478e-08, global = 1.05881e-09, cumulative = -2.58151e-07
GAMGPCG:  Solving for p_rgh, Initial residual = 0.00232672, Final residual = 2.00322e-07, No Iterations 4
diagonal:  Solving for rho, Initial residual = 0, Final residual = 0, No Iterations 0
time step continuity errors : sum local = 1.18636e-08, global = 5.54111e-10, cumulative = -2.57597e-07
DILUPBiCGStab:  Solving for omega, Initial residual = 0.000109237, Final residual = 1.38395e-09, No Iterations 2
DILUPBiCGStab:  Solving for k, Initial residual = 0.00503363, Final residual = 2.85664e-09, No Iterations 3

ExecutionTime = 3.3 s  ClockTime = 4 s

    Overall     = 0.00145066, 0.01
Time = 275

diagonal:  Solving for rho, Initial residual = 0, Final residual = 0, No Iterations 0

Execution time for mesh.update() = 0 s

DILUPBiCGStab:  Solving for Ux, Initial residual = 0.00533705, Final residual = 5.74972e-09, No Iterations 3
DILUPBiCGStab:  Solving for Uy, Initial residual = 0.0074747, Final residual = 5.02448e-09, No Iterations 3
DILUPBiCGStab:  Solving for O2, Initial residual = 0.00241447, Final residual = 1.83285e-09, No Iterations 3
DILUPBiCGStab:  Solving for H2O, Initial residual = 0.00241449, Final residual = 1.83286e-09, No Iterations 3
DILUPBiCGStab:  Solving for CH4, Initial residual = 0, Final residual = 0, No Iterations 0
DILUPBiCGStab:  Solving for CO2, Initial residual = 0.00241449, Final residual = 1.83286e-09, No Iterations 3
DILUPBiCGStab:  Solving for h, Initial residual = 0.00286083, Final residual = 1.92671e-09, No Iterations 3
min/max(T) = 300, 1044.97
GAMGPCG:  Solving for p_rgh, Initial residual = 0.0191855, Final residual = 6.75195e-07, No Iterations 4
diagonal:  Solving for rho, Initial residual = 0, Final residual = 0, No Iterations 0
time step continuity errors : sum local = 3.99028e-08, global = 1.83219e-09, cumulative = -2.55764e-07
GAMGPCG:  Solving for p_rgh, Initial residual = 0.00238692, Final residual = 9.9428e-07, No Iterations 3
diagonal:  Solving for rho, Initial residual = 0, Final residual = 0, No Iterations 0
time step continuity errors : sum local = 5.84819e-08, global = 1.2676e-09, cumulative = -2.54497e-07
DILUPBiCGStab:  Solving for omega, Initial residual = 0.000109495, Final residual = 1.44871e-09, No Iterations 2
DILUPBiCGStab:  Solving for k, Initial residual = 0.0050549, Final residual = 3.61868e-09, No Iterations 3

ExecutionTime = 3.42 s  ClockTime = 4 s

    Overall     = 0.00146168, 0.01
Time = 276

diagonal:  Solving for rho, Initial residual = 0, Final residual = 0, No Iterations 0

Execution time for mesh.update() = 0 s

DILUPBiCGStab:  Solving for Ux, Initial residual = 0.00537815, Final residual = 3.97606e-09, No Iterations 3
DILUPBiCGStab:  Solving for Uy, Initial residual = 0.00750646, Final residual = 5.15704e-09, No Iterations 3
DILUPBiCGStab:  Solving for O2, Initial residual = 0.00243115, Final residual = 1.86599e-09, No Iterations 3
DILUPBiCGStab:  Solving for H2O, Initial residual = 0.00243117, Final residual = 1.86599e-09, No Iterations 3
DILUPBiCGStab:  Solving for CH4, Initial residual = 0, Final residual = 0, No Iterations 0
DILUPBiCGStab:  Solving for CO2, Initial residual = 0.00243117, Final residual = 1.86599e-09, No Iterations 3
DILUPBiCGStab:  Solving for h, Initial residual = 0.00288126, Final residual = 1.82846e-09, No Iterations 3
min/max(T) = 300, 1044.97
GAMGPCG:  Solving for p_rgh, Initial residual = 0.0194295, Final residual = 5.95813e-07, No Iterations 4
diagonal:  Solving for rho, Initial residual = 0, Final residual = 0, No Iterations 0
time step continuity errors : sum local = 3.53937e-08, global = 1.48868e-09, cumulative = -2.53008e-07
GAMGPCG:  Solving for p_rgh, Initial residual = 0.00243085, Final residual = 1.82076e-07, No Iterations 4
diagonal:  Solving for rho, Initial residual = 0, Final residual = 0, No Iterations 0
time step continuity errors : sum local = 1.07485e-08, global = 4.60518e-10, cumulative = -2.52548e-07
DILUPBiCGStab:  Solving for omega, Initial residual = 0.000110018, Final residual = 1.49312e-09, No Iterations 2
DILUPBiCGStab:  Solving for k, Initial residual = 0.00508778, Final residual = 5.81692e-09, No Iterations 3

ExecutionTime = 3.53 s  ClockTime = 4 s

    Overall     = 0.00146874, 0.01
Time = 277

diagonal:  Solving for rho, Initial residual = 0, Final residual = 0, No Iterations 0

Execution time for mesh.update() = 0 s

DILUPBiCGStab:  Solving for Ux, Initial residual = 0.00538828, Final residual = 4.03037e-09, No Iterations 3
DILUPBiCGStab:  Solving for Uy, Initial residual = 0.00749029, Final residual = 4.52158e-09, No Iterations 3
DILUPBiCGStab:  Solving for O2, Initial residual = 0.00244623, Final residual = 1.96714e-09, No Iterations 3
DILUPBiCGStab:  Solving for H2O, Initial residual = 0.00244625, Final residual = 1.96714e-09, No Iterations 3
DILUPBiCGStab:  Solving for CH4, Initial residual = 0, Final residual = 0, No Iterations 0
DILUPBiCGStab:  Solving for CO2, Initial residual = 0.00244624, Final residual = 1.96714e-09, No Iterations 3
DILUPBiCGStab:  Solving for h, Initial residual = 0.00289424, Final residual = 1.94255e-09, No Iterations 3
min/max(T) = 300, 1044.97
GAMGPCG:  Solving for p_rgh, Initial residual = 0.0198409, Final residual = 6.3979e-07, No Iterations 4
diagonal:  Solving for rho, Initial residual = 0, Final residual = 0, No Iterations 0
time step continuity errors : sum local = 3.80411e-08, global = 9.28437e-10, cumulative = -2.51619e-07
GAMGPCG:  Solving for p_rgh, Initial residual = 0.00236619, Final residual = 9.2366e-07, No Iterations 3
diagonal:  Solving for rho, Initial residual = 0, Final residual = 0, No Iterations 0
time step continuity errors : sum local = 5.45706e-08, global = 1.01682e-09, cumulative = -2.50602e-07
DILUPBiCGStab:  Solving for omega, Initial residual = 0.000111938, Final residual = 1.48103e-09, No Iterations 2
DILUPBiCGStab:  Solving for k, Initial residual = 0.00510711, Final residual = 2.96358e-09, No Iterations 3

ExecutionTime = 3.65 s  ClockTime = 4 s

    Overall     = 0.00148325, 0.01
Time = 278

diagonal:  Solving for rho, Initial residual = 0, Final residual = 0, No Iterations 0

Execution time for mesh.update() = 0 s

DILUPBiCGStab:  Solving for Ux, Initial residual = 0.00540946, Final residual = 3.63175e-09, No Iterations 3
DILUPBiCGStab:  Solving for Uy, Initial residual = 0.00747084, Final residual = 4.8787e-09, No Iterations 3
DILUPBiCGStab:  Solving for O2, Initial residual = 0.00246819, Final residual = 2.0541e-09, No Iterations 3
DILUPBiCGStab:  Solving for H2O, Initial residual = 0.00246821, Final residual = 2.0541e-09, No Iterations 3
DILUPBiCGStab:  Solving for CH4, Initial residual = 0, Final residual = 0, No Iterations 0
DILUPBiCGStab:  Solving for CO2, Initial residual = 0.00246821, Final residual = 2.0541e-09, No Iterations 3
DILUPBiCGStab:  Solving for h, Initial residual = 0.00292341, Final residual = 1.97651e-09, No Iterations 3
min/max(T) = 300, 1044.97
GAMGPCG:  Solving for p_rgh, Initial residual = 0.0202469, Final residual = 5.91857e-07, No Iterations 4
diagonal:  Solving for rho, Initial residual = 0, Final residual = 0, No Iterations 0
time step continuity errors : sum local = 3.51268e-08, global = 2.24719e-09, cumulative = -2.48355e-07
GAMGPCG:  Solving for p_rgh, Initial residual = 0.00230752, Final residual = 9.76536e-07, No Iterations 3
diagonal:  Solving for rho, Initial residual = 0, Final residual = 0, No Iterations 0
time step continuity errors : sum local = 5.70016e-08, global = 1.36924e-09, cumulative = -2.46986e-07
DILUPBiCGStab:  Solving for omega, Initial residual = 0.000111525, Final residual = 1.57376e-09, No Iterations 2
DILUPBiCGStab:  Solving for k, Initial residual = 0.00512854, Final residual = 2.31071e-09, No Iterations 3

ExecutionTime = 3.76 s  ClockTime = 4 s

    Overall     = 0.00148927, 0.01
Time = 279

diagonal:  Solving for rho, Initial residual = 0, Final residual = 0, No Iterations 0

Execution time for mesh.update() = 0 s

DILUPBiCGStab:  Solving for Ux, Initial residual = 0.00542981, Final residual = 3.40148e-09, No Iterations 3
DILUPBiCGStab:  Solving for Uy, Initial residual = 0.00747362, Final residual = 4.40564e-09, No Iterations 3
DILUPBiCGStab:  Solving for O2, Initial residual = 0.00248172, Final residual = 2.1802e-09, No Iterations 3
DILUPBiCGStab:  Solving for H2O, Initial residual = 0.00248174, Final residual = 2.1802e-09, No Iterations 3
DILUPBiCGStab:  Solving for CH4, Initial residual = 0, Final residual = 0, No Iterations 0
DILUPBiCGStab:  Solving for CO2, Initial residual = 0.00248174, Final residual = 2.1802e-09, No Iterations 3
DILUPBiCGStab:  Solving for h, Initial residual = 0.00293572, Final residual = 2.16684e-09, No Iterations 3
min/max(T) = 300, 1044.97
GAMGPCG:  Solving for p_rgh, Initial residual = 0.0206978, Final residual = 5.95324e-07, No Iterations 4
diagonal:  Solving for rho, Initial residual = 0, Final residual = 0, No Iterations 0
time step continuity errors : sum local = 3.53628e-08, global = -9.51131e-11, cumulative = -2.47081e-07
GAMGPCG:  Solving for p_rgh, Initial residual = 0.00238145, Final residual = 9.58613e-07, No Iterations 3
diagonal:  Solving for rho, Initial residual = 0, Final residual = 0, No Iterations 0
time step continuity errors : sum local = 5.65338e-08, global = -1.09648e-09, cumulative = -2.48177e-07
DILUPBiCGStab:  Solving for omega, Initial residual = 0.000113932, Final residual = 1.68458e-09, No Iterations 2
DILUPBiCGStab:  Solving for k, Initial residual = 0.00515382, Final residual = 2.12457e-09, No Iterations 3

ExecutionTime = 3.87 s  ClockTime = 4 s

    Overall     = 0.00150558, 0.01
Time = 280

diagonal:  Solving for rho, Initial residual = 0, Final residual = 0, No Iterations 0

Execution time for mesh.update() = 0 s

DILUPBiCGStab:  Solving for Ux, Initial residual = 0.00547712, Final residual = 3.3326e-09, No Iterations 3
DILUPBiCGStab:  Solving for Uy, Initial residual = 0.0074856, Final residual = 4.67901e-09, No Iterations 3
GAMGPCG:  Solving for G, Initial residual = 0.160916, Final residual = 3.70163e-05, No Iterations 6
DILUPBiCGStab:  Solving for O2, Initial residual = 0.00249689, Final residual = 2.2124e-09, No Iterations 3
DILUPBiCGStab:  Solving for H2O, Initial residual = 0.0024969, Final residual = 2.21239e-09, No Iterations 3
DILUPBiCGStab:  Solving for CH4, Initial residual = 0, Final residual = 0, No Iterations 0
DILUPBiCGStab:  Solving for CO2, Initial residual = 0.0024969, Final residual = 2.21239e-09, No Iterations 3
DILUPBiCGStab:  Solving for h, Initial residual = 0.00295909, Final residual = 2.09231e-09, No Iterations 3
min/max(T) = 300, 1044.97
GAMGPCG:  Solving for p_rgh, Initial residual = 0.0207736, Final residual = 6.36975e-07, No Iterations 4
diagonal:  Solving for rho, Initial residual = 0, Final residual = 0, No Iterations 0
time step continuity errors : sum local = 3.79475e-08, global = 3.30316e-09, cumulative = -2.44874e-07
GAMGPCG:  Solving for p_rgh, Initial residual = 0.00245257, Final residual = 8.46539e-07, No Iterations 3
diagonal:  Solving for rho, Initial residual = 0, Final residual = 0, No Iterations 0
time step continuity errors : sum local = 5.03767e-08, global = -1.66793e-09, cumulative = -2.46542e-07
DILUPBiCGStab:  Solving for omega, Initial residual = 0.000114265, Final residual = 1.66121e-09, No Iterations 2
DILUPBiCGStab:  Solving for k, Initial residual = 0.00518636, Final residual = 2.01598e-09, No Iterations 3

ExecutionTime = 4.12 s  ClockTime = 5 s

    Overall     = 0.00151055, 0.01
Time = 281

diagonal:  Solving for rho, Initial residual = 0, Final residual = 0, No Iterations 0

Execution time for mesh.update() = 0 s

DILUPBiCGStab:  Solving for Ux, Initial residual = 0.00547492, Final residual = 3.25381e-09, No Iterations 3
DILUPBiCGStab:  Solving for Uy, Initial residual = 0.00743969, Final residual = 4.75066e-09, No Iterations 3
DILUPBiCGStab:  Solving for O2, Initial residual = 0.00250831, Final residual = 2.39534e-09, No Iterations 3
DILUPBiCGStab:  Solving for H2O, Initial residual = 0.00250832, Final residual = 2.39534e-09, No Iterations 3
DILUPBiCGStab:  Solving for CH4, Initial residual = 0, Final residual = 0, No Iterations 0
DILUPBiCGStab:  Solving for CO2, Initial residual = 0.00250832, Final residual = 2.39534e-09, No Iterations 3
DILUPBiCGStab:  Solving for h, Initial residual = 0.00296989, Final residual = 2.29011e-09, No Iterations 3
min/max(T) = 300, 1044.97
GAMGPCG:  Solving for p_rgh, Initial residual = 0.020523, Final residual = 7.02263e-07, No Iterations 4
diagonal:  Solving for rho, Initial residual = 0, Final residual = 0, No Iterations 0
time step continuity errors : sum local = 4.18862e-08, global = -9.97614e-10, cumulative = -2.4754e-07
GAMGPCG:  Solving for p_rgh, Initial residual = 0.00243048, Final residual = 9.96746e-07, No Iterations 3
diagonal:  Solving for rho, Initial residual = 0, Final residual = 0, No Iterations 0
time step continuity errors : sum local = 5.94161e-08, global = -2.13924e-09, cumulative = -2.49679e-07
DILUPBiCGStab:  Solving for omega, Initial residual = 0.000114925, Final residual = 1.67104e-09, No Iterations 2
DILUPBiCGStab:  Solving for k, Initial residual = 0.00520898, Final residual = 2.1531e-09, No Iterations 3

ExecutionTime = 4.23 s  ClockTime = 5 s

    Overall     = 0.00152698, 0.01
Time = 282

diagonal:  Solving for rho, Initial residual = 0, Final residual = 0, No Iterations 0

Execution time for mesh.update() = 0 s

DILUPBiCGStab:  Solving for Ux, Initial residual = 0.00549087, Final residual = 3.21787e-09, No Iterations 3
DILUPBiCGStab:  Solving for Uy, Initial residual = 0.00740004, Final residual = 4.64496e-09, No Iterations 3
DILUPBiCGStab:  Solving for O2, Initial residual = 0.00252957, Final residual = 2.46029e-09, No Iterations 3
DILUPBiCGStab:  Solving for H2O, Initial residual = 0.00252958, Final residual = 2.46029e-09, No Iterations 3
DILUPBiCGStab:  Solving for CH4, Initial residual = 0, Final residual = 0, No Iterations 0
DILUPBiCGStab:  Solving for CO2, Initial residual = 0.00252958, Final residual = 2.46029e-09, No Iterations 3
DILUPBiCGStab:  Solving for h, Initial residual = 0.00300155, Final residual = 2.34648e-09, No Iterations 3
min/max(T) = 300, 1044.97
GAMGPCG:  Solving for p_rgh, Initial residual = 0.0202919, Final residual = 6.21397e-07, No Iterations 4
diagonal:  Solving for rho, Initial residual = 0, Final residual = 0, No Iterations 0
time step continuity errors : sum local = 3.72281e-08, global = 2.74302e-09, cumulative = -2.46936e-07
GAMGPCG:  Solving for p_rgh, Initial residual = 0.00253894, Final residual = 1.47071e-07, No Iterations 4
diagonal:  Solving for rho, Initial residual = 0, Final residual = 0, No Iterations 0
time step continuity errors : sum local = 8.61031e-09, global = 8.45786e-10, cumulative = -2.4609e-07
DILUPBiCGStab:  Solving for omega, Initial residual = 0.000116136, Final residual = 1.65738e-09, No Iterations 2
DILUPBiCGStab:  Solving for k, Initial residual = 0.00523577, Final residual = 2.24014e-09, No Iterations 3

ExecutionTime = 4.35 s  ClockTime = 5 s

    Overall     = 0.00153184, 0.01
Time = 283

diagonal:  Solving for rho, Initial residual = 0, Final residual = 0, No Iterations 0

Execution time for mesh.update() = 0 s

DILUPBiCGStab:  Solving for Ux, Initial residual = 0.00551587, Final residual = 3.38345e-09, No Iterations 3
DILUPBiCGStab:  Solving for Uy, Initial residual = 0.00740344, Final residual = 4.82805e-09, No Iterations 3
DILUPBiCGStab:  Solving for O2, Initial residual = 0.00253838, Final residual = 2.47649e-09, No Iterations 3
DILUPBiCGStab:  Solving for H2O, Initial residual = 0.00253839, Final residual = 2.47649e-09, No Iterations 3
DILUPBiCGStab:  Solving for CH4, Initial residual = 0, Final residual = 0, No Iterations 0
DILUPBiCGStab:  Solving for CO2, Initial residual = 0.00253839, Final residual = 2.47649e-09, No Iterations 3
DILUPBiCGStab:  Solving for h, Initial residual = 0.00301071, Final residual = 2.45469e-09, No Iterations 3
min/max(T) = 300, 1044.97
GAMGPCG:  Solving for p_rgh, Initial residual = 0.0202134, Final residual = 6.17629e-07, No Iterations 4
diagonal:  Solving for rho, Initial residual = 0, Final residual = 0, No Iterations 0
time step continuity errors : sum local = 3.71187e-08, global = -1.18154e-10, cumulative = -2.46208e-07
GAMGPCG:  Solving for p_rgh, Initial residual = 0.00243351, Final residual = 1.49657e-07, No Iterations 4
diagonal:  Solving for rho, Initial residual = 0, Final residual = 0, No Iterations 0
time step continuity errors : sum local = 8.74759e-09, global = 9.28133e-10, cumulative = -2.4528e-07
DILUPBiCGStab:  Solving for omega, Initial residual = 0.000118084, Final residual = 1.6892e-09, No Iterations 2
DILUPBiCGStab:  Solving for k, Initial residual = 0.00526909, Final residual = 2.41598e-09, No Iterations 3

ExecutionTime = 4.46 s  ClockTime = 5 s

    Overall     = 0.00154838, 0.01
Time = 284

diagonal:  Solving for rho, Initial residual = 0, Final residual = 0, No Iterations 0

Execution time for mesh.update() = 0 s

DILUPBiCGStab:  Solving for Ux, Initial residual = 0.00551528, Final residual = 3.24065e-09, No Iterations 3
DILUPBiCGStab:  Solving for Uy, Initial residual = 0.00739096, Final residual = 4.43949e-09, No Iterations 3
DILUPBiCGStab:  Solving for O2, Initial residual = 0.00255517, Final residual = 2.51723e-09, No Iterations 3
DILUPBiCGStab:  Solving for H2O, Initial residual = 0.00255518, Final residual = 2.51723e-09, No Iterations 3
DILUPBiCGStab:  Solving for CH4, Initial residual = 0, Final residual = 0, No Iterations 0
DILUPBiCGStab:  Solving for CO2, Initial residual = 0.00255518, Final residual = 2.51723e-09, No Iterations 3
DILUPBiCGStab:  Solving for h, Initial residual = 0.00303327, Final residual = 2.42308e-09, No Iterations 3
min/max(T) = 299.996, 1044.97
GAMGPCG:  Solving for p_rgh, Initial residual = 0.02024, Final residual = 5.22738e-07, No Iterations 4
diagonal:  Solving for rho, Initial residual = 0, Final residual = 0, No Iterations 0
time step continuity errors : sum local = 3.15509e-08, global = 2.87654e-10, cumulative = -2.44993e-07
GAMGPCG:  Solving for p_rgh, Initial residual = 0.00244935, Final residual = 1.42885e-07, No Iterations 4
diagonal:  Solving for rho, Initial residual = 0, Final residual = 0, No Iterations 0
time step continuity errors : sum local = 8.41481e-09, global = 6.16247e-10, cumulative = -2.44376e-07
DILUPBiCGStab:  Solving for omega, Initial residual = 0.000117596, Final residual = 1.70147e-09, No Iterations 2
DILUPBiCGStab:  Solving for k, Initial residual = 0.00530471, Final residual = 2.58958e-09, No Iterations 3

ExecutionTime = 4.58 s  ClockTime = 5 s

    Overall     = 0.00155402, 0.01
Time = 285

diagonal:  Solving for rho, Initial residual = 0, Final residual = 0, No Iterations 0

Execution time for mesh.update() = 0 s

DILUPBiCGStab:  Solving for Ux, Initial residual = 0.00552569, Final residual = 3.2949e-09, No Iterations 3
DILUPBiCGStab:  Solving for Uy, Initial residual = 0.00738584, Final residual = 4.30547e-09, No Iterations 3
DILUPBiCGStab:  Solving for O2, Initial residual = 0.00256539, Final residual = 2.34887e-09, No Iterations 3
DILUPBiCGStab:  Solving for H2O, Initial residual = 0.00256541, Final residual = 2.34887e-09, No Iterations 3
DILUPBiCGStab:  Solving for CH4, Initial residual = 0, Final residual = 0, No Iterations 0
DILUPBiCGStab:  Solving for CO2, Initial residual = 0.00256541, Final residual = 2.34887e-09, No Iterations 3
DILUPBiCGStab:  Solving for h, Initial residual = 0.00304204, Final residual = 2.25398e-09, No Iterations 3
min/max(T) = 299.993, 1044.97
GAMGPCG:  Solving for p_rgh, Initial residual = 0.0204329, Final residual = 6.14575e-07, No Iterations 4
diagonal:  Solving for rho, Initial residual = 0, Final residual = 0, No Iterations 0
time step continuity errors : sum local = 3.70364e-08, global = 1.40087e-09, cumulative = -2.42976e-07
GAMGPCG:  Solving for p_rgh, Initial residual = 0.00244186, Final residual = 1.16668e-07, No Iterations 4
diagonal:  Solving for rho, Initial residual = 0, Final residual = 0, No Iterations 0
time step continuity errors : sum local = 6.81479e-09, global = 8.17575e-10, cumulative = -2.42158e-07
DILUPBiCGStab:  Solving for omega, Initial residual = 0.000119292, Final residual = 1.77844e-09, No Iterations 2
DILUPBiCGStab:  Solving for k, Initial residual = 0.00533313, Final residual = 2.44809e-09, No Iterations 3

ExecutionTime = 4.69 s  ClockTime = 5 s

    Overall     = 0.00157146, 0.01
Time = 286

diagonal:  Solving for rho, Initial residual = 0, Final residual = 0, No Iterations 0

Execution time for mesh.update() = 0 s

DILUPBiCGStab:  Solving for Ux, Initial residual = 0.00556053, Final residual = 3.32632e-09, No Iterations 3
DILUPBiCGStab:  Solving for Uy, Initial residual = 0.00739081, Final residual = 4.47889e-09, No Iterations 3
DILUPBiCGStab:  Solving for O2, Initial residual = 0.00258432, Final residual = 2.07504e-09, No Iterations 3
DILUPBiCGStab:  Solving for H2O, Initial residual = 0.00258434, Final residual = 2.07505e-09, No Iterations 3
DILUPBiCGStab:  Solving for CH4, Initial residual = 0, Final residual = 0, No Iterations 0
DILUPBiCGStab:  Solving for CO2, Initial residual = 0.00258434, Final residual = 2.07505e-09, No Iterations 3
DILUPBiCGStab:  Solving for h, Initial residual = 0.00306894, Final residual = 1.91109e-09, No Iterations 3
min/max(T) = 299.986, 1044.97
GAMGPCG:  Solving for p_rgh, Initial residual = 0.0201036, Final residual = 5.67447e-07, No Iterations 4
diagonal:  Solving for rho, Initial residual = 0, Final residual = 0, No Iterations 0
time step continuity errors : sum local = 3.45563e-08, global = 1.74926e-09, cumulative = -2.40409e-07
GAMGPCG:  Solving for p_rgh, Initial residual = 0.00246181, Final residual = 1.42376e-07, No Iterations 4
diagonal:  Solving for rho, Initial residual = 0, Final residual = 0, No Iterations 0
time step continuity errors : sum local = 8.31669e-09, global = 9.81532e-10, cumulative = -2.39427e-07
DILUPBiCGStab:  Solving for omega, Initial residual = 0.000118897, Final residual = 1.79105e-09, No Iterations 2
DILUPBiCGStab:  Solving for k, Initial residual = 0.00535866, Final residual = 2.33124e-09, No Iterations 3

ExecutionTime = 4.8 s  ClockTime = 5 s

    Overall     = 0.00157834, 0.01
Time = 287

diagonal:  Solving for rho, Initial residual = 0, Final residual = 0, No Iterations 0

Execution time for mesh.update() = 0 s

DILUPBiCGStab:  Solving for Ux, Initial residual = 0.00557597, Final residual = 3.4753e-09, No Iterations 3
DILUPBiCGStab:  Solving for Uy, Initial residual = 0.00739925, Final residual = 4.39281e-09, No Iterations 3
DILUPBiCGStab:  Solving for O2, Initial residual = 0.00259397, Final residual = 2.07769e-09, No Iterations 3
DILUPBiCGStab:  Solving for H2O, Initial residual = 0.002594, Final residual = 2.07771e-09, No Iterations 3
DILUPBiCGStab:  Solving for CH4, Initial residual = 0, Final residual = 0, No Iterations 0
DILUPBiCGStab:  Solving for CO2, Initial residual = 0.002594, Final residual = 2.07771e-09, No Iterations 3
DILUPBiCGStab:  Solving for h, Initial residual = 0.00307434, Final residual = 1.86448e-09, No Iterations 3
min/max(T) = 299.981, 1044.97
GAMGPCG:  Solving for p_rgh, Initial residual = 0.0203811, Final residual = 6.39374e-07, No Iterations 4
diagonal:  Solving for rho, Initial residual = 0, Final residual = 0, No Iterations 0
time step continuity errors : sum local = 3.86809e-08, global = -5.16986e-10, cumulative = -2.39944e-07
GAMGPCG:  Solving for p_rgh, Initial residual = 0.00253295, Final residual = 1.56618e-07, No Iterations 4
diagonal:  Solving for rho, Initial residual = 0, Final residual = 0, No Iterations 0
time step continuity errors : sum local = 9.0683e-09, global = 1.08694e-09, cumulative = -2.38857e-07
DILUPBiCGStab:  Solving for omega, Initial residual = 0.000118739, Final residual = 1.89021e-09, No Iterations 2
DILUPBiCGStab:  Solving for k, Initial residual = 0.00538502, Final residual = 2.17169e-09, No Iterations 3

ExecutionTime = 4.92 s  ClockTime = 5 s

    Overall     = 0.00159637, 0.01
Time = 288

diagonal:  Solving for rho, Initial residual = 0, Final residual = 0, No Iterations 0

Execution time for mesh.update() = 0 s

DILUPBiCGStab:  Solving for Ux, Initial residual = 0.0055948, Final residual = 3.46984e-09, No Iterations 3
DILUPBiCGStab:  Solving for Uy, Initial residual = 0.00736452, Final residual = 4.40511e-09, No Iterations 3
DILUPBiCGStab:  Solving for O2, Initial residual = 0.00261662, Final residual = 2.03768e-09, No Iterations 3
DILUPBiCGStab:  Solving for H2O, Initial residual = 0.00261665, Final residual = 2.03771e-09, No Iterations 3
DILUPBiCGStab:  Solving for CH4, Initial residual = 0, Final residual = 0, No Iterations 0
DILUPBiCGStab:  Solving for CO2, Initial residual = 0.00261665, Final residual = 2.03771e-09, No Iterations 3
DILUPBiCGStab:  Solving for h, Initial residual = 0.00309836, Final residual = 1.81713e-09, No Iterations 3
min/max(T) = 299.974, 1044.97
GAMGPCG:  Solving for p_rgh, Initial residual = 0.0205723, Final residual = 5.73793e-07, No Iterations 4
diagonal:  Solving for rho, Initial residual = 0, Final residual = 0, No Iterations 0
time step continuity errors : sum local = 3.48069e-08, global = 2.1737e-09, cumulative = -2.36683e-07
GAMGPCG:  Solving for p_rgh, Initial residual = 0.00251042, Final residual = 1.43314e-07, No Iterations 4
diagonal:  Solving for rho, Initial residual = 0, Final residual = 0, No Iterations 0
time step continuity errors : sum local = 8.2132e-09, global = 1.49321e-09, cumulative = -2.3519e-07
DILUPBiCGStab:  Solving for omega, Initial residual = 0.000117821, Final residual = 1.82914e-09, No Iterations 2
DILUPBiCGStab:  Solving for k, Initial residual = 0.00541182, Final residual = 2.15287e-09, No Iterations 3

ExecutionTime = 5.04 s  ClockTime = 6 s

    Overall     = 0.00160459, 0.01
Time = 289

diagonal:  Solving for rho, Initial residual = 0, Final residual = 0, No Iterations 0

Execution time for mesh.update() = 0 s

DILUPBiCGStab:  Solving for Ux, Initial residual = 0.00563095, Final residual = 3.49865e-09, No Iterations 3
DILUPBiCGStab:  Solving for Uy, Initial residual = 0.00739004, Final residual = 4.27475e-09, No Iterations 3
DILUPBiCGStab:  Solving for O2, Initial residual = 0.00261789, Final residual = 2.00146e-09, No Iterations 3
DILUPBiCGStab:  Solving for H2O, Initial residual = 0.00261792, Final residual = 2.00147e-09, No Iterations 3
DILUPBiCGStab:  Solving for CH4, Initial residual = 0, Final residual = 0, No Iterations 0
DILUPBiCGStab:  Solving for CO2, Initial residual = 0.00261792, Final residual = 2.00147e-09, No Iterations 3
DILUPBiCGStab:  Solving for h, Initial residual = 0.00309365, Final residual = 1.82162e-09, No Iterations 3
min/max(T) = 299.964, 1044.97
GAMGPCG:  Solving for p_rgh, Initial residual = 0.0214968, Final residual = 6.62057e-07, No Iterations 4
diagonal:  Solving for rho, Initial residual = 0, Final residual = 0, No Iterations 0
time step continuity errors : sum local = 4.07978e-08, global = 5.71791e-09, cumulative = -2.29472e-07
GAMGPCG:  Solving for p_rgh, Initial residual = 0.00262974, Final residual = 9.54879e-08, No Iterations 4
diagonal:  Solving for rho, Initial residual = 0, Final residual = 0, No Iterations 0
time step continuity errors : sum local = 5.74263e-09, global = 5.70045e-10, cumulative = -2.28902e-07
DILUPBiCGStab:  Solving for omega, Initial residual = 0.000119114, Final residual = 1.81165e-09, No Iterations 2
DILUPBiCGStab:  Solving for k, Initial residual = 0.00544027, Final residual = 2.31974e-09, No Iterations 3

ExecutionTime = 5.15 s  ClockTime = 6 s

    Overall     = 0.00162427, 0.01
Time = 290

diagonal:  Solving for rho, Initial residual = 0, Final residual = 0, No Iterations 0

Execution time for mesh.update() = 0 s

DILUPBiCGStab:  Solving for Ux, Initial residual = 0.00564468, Final residual = 3.45005e-09, No Iterations 3
DILUPBiCGStab:  Solving for Uy, Initial residual = 0.00738205, Final residual = 4.53637e-09, No Iterations 3
GAMGPCG:  Solving for G, Initial residual = 0.18523, Final residual = 5.21922e-05, No Iterations 6
DILUPBiCGStab:  Solving for O2, Initial residual = 0.0026287, Final residual = 1.87084e-09, No Iterations 3
DILUPBiCGStab:  Solving for H2O, Initial residual = 0.00262874, Final residual = 1.87088e-09, No Iterations 3
DILUPBiCGStab:  Solving for CH4, Initial residual = 0, Final residual = 0, No Iterations 0
DILUPBiCGStab:  Solving for CO2, Initial residual = 0.00262874, Final residual = 1.87088e-09, No Iterations 3
DILUPBiCGStab:  Solving for h, Initial residual = 0.00311254, Final residual = 1.75591e-09, No Iterations 3
min/max(T) = 299.958, 1044.97
GAMGPCG:  Solving for p_rgh, Initial residual = 0.0213525, Final residual = 6.98513e-07, No Iterations 4
diagonal:  Solving for rho, Initial residual = 0, Final residual = 0, No Iterations 0
time step continuity errors : sum local = 4.28009e-08, global = 2.30235e-09, cumulative = -2.266e-07
GAMGPCG:  Solving for p_rgh, Initial residual = 0.0025922, Final residual = 1.14796e-07, No Iterations 4
diagonal:  Solving for rho, Initial residual = 0, Final residual = 0, No Iterations 0
time step continuity errors : sum local = 6.65408e-09, global = 1.28376e-09, cumulative = -2.25316e-07
DILUPBiCGStab:  Solving for omega, Initial residual = 0.000118268, Final residual = 1.68202e-09, No Iterations 2
DILUPBiCGStab:  Solving for k, Initial residual = 0.0054638, Final residual = 3.01138e-09, No Iterations 3

ExecutionTime = 5.41 s  ClockTime = 6 s

    Overall     = 0.00163462, 0.01
Time = 291

diagonal:  Solving for rho, Initial residual = 0, Final residual = 0, No Iterations 0

Execution time for mesh.update() = 0 s

DILUPBiCGStab:  Solving for Ux, Initial residual = 0.00567126, Final residual = 3.40752e-09, No Iterations 3
DILUPBiCGStab:  Solving for Uy, Initial residual = 0.00733337, Final residual = 4.67754e-09, No Iterations 3
DILUPBiCGStab:  Solving for O2, Initial residual = 0.00264316, Final residual = 1.58901e-09, No Iterations 3
DILUPBiCGStab:  Solving for H2O, Initial residual = 0.00264321, Final residual = 1.58909e-09, No Iterations 3
DILUPBiCGStab:  Solving for CH4, Initial residual = 0, Final residual = 0, No Iterations 0
DILUPBiCGStab:  Solving for CO2, Initial residual = 0.00264321, Final residual = 1.58909e-09, No Iterations 3
DILUPBiCGStab:  Solving for h, Initial residual = 0.00312648, Final residual = 1.5241e-09, No Iterations 3
min/max(T) = 299.943, 1044.97
GAMGPCG:  Solving for p_rgh, Initial residual = 0.0215991, Final residual = 6.63015e-07, No Iterations 4
diagonal:  Solving for rho, Initial residual = 0, Final residual = 0, No Iterations 0
time step continuity errors : sum local = 4.11298e-08, global = 3.37414e-09, cumulative = -2.21942e-07
GAMGPCG:  Solving for p_rgh, Initial residual = 0.00266759, Final residual = 1.1123e-07, No Iterations 4
diagonal:  Solving for rho, Initial residual = 0, Final residual = 0, No Iterations 0
time step continuity errors : sum local = 6.50006e-09, global = 9.38895e-10, cumulative = -2.21003e-07
DILUPBiCGStab:  Solving for omega, Initial residual = 0.000118409, Final residual = 1.59488e-09, No Iterations 2
DILUPBiCGStab:  Solving for k, Initial residual = 0.00548183, Final residual = 2.54342e-09, No Iterations 3

ExecutionTime = 5.53 s  ClockTime = 6 s

    Overall     = 0.00165652, 0.01
Time = 292

diagonal:  Solving for rho, Initial residual = 0, Final residual = 0, No Iterations 0

Execution time for mesh.update() = 0 s

DILUPBiCGStab:  Solving for Ux, Initial residual = 0.00571841, Final residual = 3.61693e-09, No Iterations 3
DILUPBiCGStab:  Solving for Uy, Initial residual = 0.00736537, Final residual = 4.87495e-09, No Iterations 3
DILUPBiCGStab:  Solving for O2, Initial residual = 0.00265408, Final residual = 1.74585e-09, No Iterations 3
DILUPBiCGStab:  Solving for H2O, Initial residual = 0.00265413, Final residual = 1.746e-09, No Iterations 3
DILUPBiCGStab:  Solving for CH4, Initial residual = 0, Final residual = 0, No Iterations 0
DILUPBiCGStab:  Solving for CO2, Initial residual = 0.00265413, Final residual = 1.746e-09, No Iterations 3
DILUPBiCGStab:  Solving for h, Initial residual = 0.00314024, Final residual = 1.64133e-09, No Iterations 3
min/max(T) = 299.937, 1044.97
GAMGPCG:  Solving for p_rgh, Initial residual = 0.0212085, Final residual = 6.03312e-07, No Iterations 4
diagonal:  Solving for rho, Initial residual = 0, Final residual = 0, No Iterations 0
time step continuity errors : sum local = 3.74818e-08, global = 4.90414e-09, cumulative = -2.16099e-07
GAMGPCG:  Solving for p_rgh, Initial residual = 0.00268084, Final residual = 1.26942e-07, No Iterations 4
diagonal:  Solving for rho, Initial residual = 0, Final residual = 0, No Iterations 0
time step continuity errors : sum local = 7.50822e-09, global = 8.50002e-10, cumulative = -2.15249e-07
DILUPBiCGStab:  Solving for omega, Initial residual = 0.000118876, Final residual = 1.38779e-09, No Iterations 2
DILUPBiCGStab:  Solving for k, Initial residual = 0.00550515, Final residual = 2.0068e-09, No Iterations 3

ExecutionTime = 5.64 s  ClockTime = 6 s

    Overall     = 0.00166966, 0.01
Time = 293

diagonal:  Solving for rho, Initial residual = 0, Final residual = 0, No Iterations 0

[...]

Execution time for mesh.update() = 0 s

DILUPBiCGStab:  Solving for Ux, Initial residual = 0.00444208, Final residual = 5.76966e-09, No Iterations 3
DILUPBiCGStab:  Solving for Uy, Initial residual = 0.00442709, Final residual = 5.85878e-09, No Iterations 3
GAMGPCG:  Solving for G, Initial residual = 0.242072, Final residual = 9.93993e-05, No Iterations 5
DILUPBiCGStab:  Solving for O2, Initial residual = 0.0015831, Final residual = 2.11461e-09, No Iterations 3
DILUPBiCGStab:  Solving for H2O, Initial residual = 0.0015831, Final residual = 2.11461e-09, No Iterations 3
DILUPBiCGStab:  Solving for CH4, Initial residual = 0, Final residual = 0, No Iterations 0
DILUPBiCGStab:  Solving for CO2, Initial residual = 0.0015831, Final residual = 2.11461e-09, No Iterations 3
DILUPBiCGStab:  Solving for h, Initial residual = 0.00183713, Final residual = 2.14754e-09, No Iterations 3
min/max(T) = 299.917, 1044.97
GAMGPCG:  Solving for p_rgh, Initial residual = 0.0176391, Final residual = 9.0461e-07, No Iterations 4
diagonal:  Solving for rho, Initial residual = 0, Final residual = 0, No Iterations 0
time step continuity errors : sum local = 3.76829e-08, global = 3.6796e-09, cumulative = 1.35025e-06
GAMGPCG:  Solving for p_rgh, Initial residual = 0.00288644, Final residual = 1.8908e-07, No Iterations 4
diagonal:  Solving for rho, Initial residual = 0, Final residual = 0, No Iterations 0
time step continuity errors : sum local = 7.56158e-09, global = 1.11342e-09, cumulative = 1.35137e-06
DILUPBiCGStab:  Solving for omega, Initial residual = 7.90028e-05, Final residual = 1.02497e-09, No Iterations 2
DILUPBiCGStab:  Solving for k, Initial residual = 0.00406269, Final residual = 2.437e-09, No Iterations 3

ExecutionTime = 291.83 s  ClockTime = 292 s

    Overall     = 0.00118117, 0.01
Time = 2491

diagonal:  Solving for rho, Initial residual = 0, Final residual = 0, No Iterations 0

Execution time for mesh.update() = 0 s

DILUPBiCGStab:  Solving for Ux, Initial residual = 0.00441021, Final residual = 6.28311e-09, No Iterations 3
DILUPBiCGStab:  Solving for Uy, Initial residual = 0.0043789, Final residual = 5.1452e-09, No Iterations 3
DILUPBiCGStab:  Solving for O2, Initial residual = 0.00156108, Final residual = 2.1426e-09, No Iterations 3
DILUPBiCGStab:  Solving for H2O, Initial residual = 0.00156108, Final residual = 2.1426e-09, No Iterations 3
DILUPBiCGStab:  Solving for CH4, Initial residual = 0, Final residual = 0, No Iterations 0
DILUPBiCGStab:  Solving for CO2, Initial residual = 0.00156108, Final residual = 2.1426e-09, No Iterations 3
DILUPBiCGStab:  Solving for h, Initial residual = 0.00180931, Final residual = 2.20896e-09, No Iterations 3
min/max(T) = 299.947, 1044.97
GAMGPCG:  Solving for p_rgh, Initial residual = 0.017154, Final residual = 9.79157e-07, No Iterations 4
diagonal:  Solving for rho, Initial residual = 0, Final residual = 0, No Iterations 0
time step continuity errors : sum local = 4.05636e-08, global = 3.85933e-09, cumulative = 1.35523e-06
GAMGPCG:  Solving for p_rgh, Initial residual = 0.00286411, Final residual = 2.04819e-07, No Iterations 4
diagonal:  Solving for rho, Initial residual = 0, Final residual = 0, No Iterations 0
time step continuity errors : sum local = 8.21997e-09, global = 9.4699e-10, cumulative = 1.35617e-06
DILUPBiCGStab:  Solving for omega, Initial residual = 7.78401e-05, Final residual = 1.08639e-09, No Iterations 2
DILUPBiCGStab:  Solving for k, Initial residual = 0.00404649, Final residual = 2.54658e-09, No Iterations 3

ExecutionTime = 291.94 s  ClockTime = 292 s

    Overall     = 0.00117783, 0.01
Time = 2492

diagonal:  Solving for rho, Initial residual = 0, Final residual = 0, No Iterations 0

Execution time for mesh.update() = 0 s

DILUPBiCGStab:  Solving for Ux, Initial residual = 0.00436495, Final residual = 6.71556e-09, No Iterations 3
DILUPBiCGStab:  Solving for Uy, Initial residual = 0.00433847, Final residual = 5.14554e-09, No Iterations 3
DILUPBiCGStab:  Solving for O2, Initial residual = 0.00156657, Final residual = 2.11067e-09, No Iterations 3
DILUPBiCGStab:  Solving for H2O, Initial residual = 0.00156657, Final residual = 2.11067e-09, No Iterations 3
DILUPBiCGStab:  Solving for CH4, Initial residual = 0, Final residual = 0, No Iterations 0
DILUPBiCGStab:  Solving for CO2, Initial residual = 0.00156657, Final residual = 2.11067e-09, No Iterations 3
DILUPBiCGStab:  Solving for h, Initial residual = 0.00181784, Final residual = 2.11614e-09, No Iterations 3
min/max(T) = 299.972, 1044.97
GAMGPCG:  Solving for p_rgh, Initial residual = 0.0172716, Final residual = 1.47331e-07, No Iterations 5
diagonal:  Solving for rho, Initial residual = 0, Final residual = 0, No Iterations 0
time step continuity errors : sum local = 5.99773e-09, global = 4.31376e-10, cumulative = 1.35661e-06
GAMGPCG:  Solving for p_rgh, Initial residual = 0.00284845, Final residual = 2.2419e-07, No Iterations 4
diagonal:  Solving for rho, Initial residual = 0, Final residual = 0, No Iterations 0
time step continuity errors : sum local = 8.98252e-09, global = 8.16547e-10, cumulative = 1.35742e-06
DILUPBiCGStab:  Solving for omega, Initial residual = 7.82963e-05, Final residual = 1.11944e-09, No Iterations 2
DILUPBiCGStab:  Solving for k, Initial residual = 0.00404399, Final residual = 2.50486e-09, No Iterations 3

ExecutionTime = 292.06 s  ClockTime = 293 s

    Overall     = 0.00118041, 0.01
Time = 2493

diagonal:  Solving for rho, Initial residual = 0, Final residual = 0, No Iterations 0

Execution time for mesh.update() = 0 s

DILUPBiCGStab:  Solving for Ux, Initial residual = 0.00436908, Final residual = 7.16282e-09, No Iterations 3
DILUPBiCGStab:  Solving for Uy, Initial residual = 0.00430606, Final residual = 4.74823e-09, No Iterations 3
DILUPBiCGStab:  Solving for O2, Initial residual = 0.00155414, Final residual = 2.04877e-09, No Iterations 3
DILUPBiCGStab:  Solving for H2O, Initial residual = 0.00155415, Final residual = 2.04877e-09, No Iterations 3
DILUPBiCGStab:  Solving for CH4, Initial residual = 0, Final residual = 0, No Iterations 0
DILUPBiCGStab:  Solving for CO2, Initial residual = 0.00155415, Final residual = 2.04877e-09, No Iterations 3
DILUPBiCGStab:  Solving for h, Initial residual = 0.00180359, Final residual = 2.08022e-09, No Iterations 3
min/max(T) = 299.983, 1044.97
GAMGPCG:  Solving for p_rgh, Initial residual = 0.0166954, Final residual = 9.29454e-07, No Iterations 4
diagonal:  Solving for rho, Initial residual = 0, Final residual = 0, No Iterations 0
time step continuity errors : sum local = 3.78805e-08, global = 4.98432e-09, cumulative = 1.36241e-06
GAMGPCG:  Solving for p_rgh, Initial residual = 0.00283105, Final residual = 2.39419e-07, No Iterations 4
diagonal:  Solving for rho, Initial residual = 0, Final residual = 0, No Iterations 0
time step continuity errors : sum local = 9.58206e-09, global = 6.36976e-10, cumulative = 1.36304e-06
DILUPBiCGStab:  Solving for omega, Initial residual = 7.73826e-05, Final residual = 1.17114e-09, No Iterations 2
DILUPBiCGStab:  Solving for k, Initial residual = 0.00402895, Final residual = 2.42763e-09, No Iterations 3

ExecutionTime = 292.18 s  ClockTime = 293 s

    Overall     = 0.00118117, 0.01
Time = 2494

diagonal:  Solving for rho, Initial residual = 0, Final residual = 0, No Iterations 0

Execution time for mesh.update() = 0 s

DILUPBiCGStab:  Solving for Ux, Initial residual = 0.00433487, Final residual = 6.94285e-09, No Iterations 3
DILUPBiCGStab:  Solving for Uy, Initial residual = 0.004295, Final residual = 4.80775e-09, No Iterations 3
DILUPBiCGStab:  Solving for O2, Initial residual = 0.00155677, Final residual = 2.12926e-09, No Iterations 3
DILUPBiCGStab:  Solving for H2O, Initial residual = 0.00155677, Final residual = 2.12926e-09, No Iterations 3
DILUPBiCGStab:  Solving for CH4, Initial residual = 0, Final residual = 0, No Iterations 0
DILUPBiCGStab:  Solving for CO2, Initial residual = 0.00155677, Final residual = 2.12926e-09, No Iterations 3
DILUPBiCGStab:  Solving for h, Initial residual = 0.00180587, Final residual = 2.09679e-09, No Iterations 3
min/max(T) = 299.993, 1044.97
GAMGPCG:  Solving for p_rgh, Initial residual = 0.0169686, Final residual = 8.85772e-07, No Iterations 4
diagonal:  Solving for rho, Initial residual = 0, Final residual = 0, No Iterations 0
time step continuity errors : sum local = 3.57633e-08, global = 5.30076e-09, cumulative = 1.36834e-06
GAMGPCG:  Solving for p_rgh, Initial residual = 0.00284101, Final residual = 2.5896e-07, No Iterations 4
diagonal:  Solving for rho, Initial residual = 0, Final residual = 0, No Iterations 0
time step continuity errors : sum local = 1.03825e-08, global = 5.07721e-10, cumulative = 1.36885e-06
DILUPBiCGStab:  Solving for omega, Initial residual = 7.72662e-05, Final residual = 1.20683e-09, No Iterations 2
DILUPBiCGStab:  Solving for k, Initial residual = 0.0040133, Final residual = 2.30661e-09, No Iterations 3

ExecutionTime = 292.29 s  ClockTime = 293 s

    Overall     = 0.00118631, 0.01
Time = 2495

diagonal:  Solving for rho, Initial residual = 0, Final residual = 0, No Iterations 0

Execution time for mesh.update() = 0 s

DILUPBiCGStab:  Solving for Ux, Initial residual = 0.00433336, Final residual = 7.7814e-09, No Iterations 3
DILUPBiCGStab:  Solving for Uy, Initial residual = 0.00428974, Final residual = 4.84032e-09, No Iterations 3
DILUPBiCGStab:  Solving for O2, Initial residual = 0.00155018, Final residual = 2.07681e-09, No Iterations 3
DILUPBiCGStab:  Solving for H2O, Initial residual = 0.00155018, Final residual = 2.07682e-09, No Iterations 3
DILUPBiCGStab:  Solving for CH4, Initial residual = 0, Final residual = 0, No Iterations 0
DILUPBiCGStab:  Solving for CO2, Initial residual = 0.00155018, Final residual = 2.07682e-09, No Iterations 3
DILUPBiCGStab:  Solving for h, Initial residual = 0.00179957, Final residual = 1.9326e-09, No Iterations 3
min/max(T) = 300, 1044.97
GAMGPCG:  Solving for p_rgh, Initial residual = 0.0163919, Final residual = 7.98245e-07, No Iterations 4
diagonal:  Solving for rho, Initial residual = 0, Final residual = 0, No Iterations 0
time step continuity errors : sum local = 3.17942e-08, global = 4.71597e-09, cumulative = 1.37357e-06
GAMGPCG:  Solving for p_rgh, Initial residual = 0.00282822, Final residual = 2.65846e-07, No Iterations 4
diagonal:  Solving for rho, Initial residual = 0, Final residual = 0, No Iterations 0
time step continuity errors : sum local = 1.06678e-08, global = 5.35426e-10, cumulative = 1.3741e-06
DILUPBiCGStab:  Solving for omega, Initial residual = 7.74651e-05, Final residual = 1.25522e-09, No Iterations 2
DILUPBiCGStab:  Solving for k, Initial residual = 0.00400263, Final residual = 2.14284e-09, No Iterations 3

ExecutionTime = 292.41 s  ClockTime = 293 s

    Overall     = 0.00118844, 0.01
Time = 2496

diagonal:  Solving for rho, Initial residual = 0, Final residual = 0, No Iterations 0

Execution time for mesh.update() = 0 s

DILUPBiCGStab:  Solving for Ux, Initial residual = 0.00430164, Final residual = 6.0538e-09, No Iterations 3
DILUPBiCGStab:  Solving for Uy, Initial residual = 0.00427274, Final residual = 5.21404e-09, No Iterations 3
DILUPBiCGStab:  Solving for O2, Initial residual = 0.00155152, Final residual = 1.79339e-09, No Iterations 3
DILUPBiCGStab:  Solving for H2O, Initial residual = 0.00155152, Final residual = 1.79339e-09, No Iterations 3
DILUPBiCGStab:  Solving for CH4, Initial residual = 0, Final residual = 0, No Iterations 0
DILUPBiCGStab:  Solving for CO2, Initial residual = 0.00155152, Final residual = 1.79339e-09, No Iterations 3
DILUPBiCGStab:  Solving for h, Initial residual = 0.00180231, Final residual = 1.8003e-09, No Iterations 3
min/max(T) = 300, 1044.97
GAMGPCG:  Solving for p_rgh, Initial residual = 0.016377, Final residual = 7.91393e-07, No Iterations 4
diagonal:  Solving for rho, Initial residual = 0, Final residual = 0, No Iterations 0
time step continuity errors : sum local = 3.11946e-08, global = 4.10792e-09, cumulative = 1.37821e-06
GAMGPCG:  Solving for p_rgh, Initial residual = 0.00277537, Final residual = 2.72868e-07, No Iterations 4
diagonal:  Solving for rho, Initial residual = 0, Final residual = 0, No Iterations 0
time step continuity errors : sum local = 1.0946e-08, global = 6.01821e-10, cumulative = 1.37881e-06
DILUPBiCGStab:  Solving for omega, Initial residual = 7.72027e-05, Final residual = 1.21772e-09, No Iterations 2
DILUPBiCGStab:  Solving for k, Initial residual = 0.00400045, Final residual = 2.20312e-09, No Iterations 3

ExecutionTime = 292.53 s  ClockTime = 293 s

    Overall     = 0.00119592, 0.01
Time = 2497

diagonal:  Solving for rho, Initial residual = 0, Final residual = 0, No Iterations 0

Execution time for mesh.update() = 0 s

DILUPBiCGStab:  Solving for Ux, Initial residual = 0.00431794, Final residual = 5.56187e-09, No Iterations 3
DILUPBiCGStab:  Solving for Uy, Initial residual = 0.00428911, Final residual = 5.4053e-09, No Iterations 3
DILUPBiCGStab:  Solving for O2, Initial residual = 0.00155183, Final residual = 1.56973e-09, No Iterations 3
DILUPBiCGStab:  Solving for H2O, Initial residual = 0.00155183, Final residual = 1.56973e-09, No Iterations 3
DILUPBiCGStab:  Solving for CH4, Initial residual = 0, Final residual = 0, No Iterations 0
DILUPBiCGStab:  Solving for CO2, Initial residual = 0.00155183, Final residual = 1.56973e-09, No Iterations 3
DILUPBiCGStab:  Solving for h, Initial residual = 0.00180148, Final residual = 1.76213e-09, No Iterations 3
min/max(T) = 300, 1044.97
GAMGPCG:  Solving for p_rgh, Initial residual = 0.0165354, Final residual = 7.36439e-07, No Iterations 4
diagonal:  Solving for rho, Initial residual = 0, Final residual = 0, No Iterations 0
time step continuity errors : sum local = 2.90511e-08, global = 3.68003e-09, cumulative = 1.38249e-06
GAMGPCG:  Solving for p_rgh, Initial residual = 0.00278199, Final residual = 2.76664e-07, No Iterations 4
diagonal:  Solving for rho, Initial residual = 0, Final residual = 0, No Iterations 0
time step continuity errors : sum local = 1.11067e-08, global = 6.45143e-10, cumulative = 1.38314e-06
DILUPBiCGStab:  Solving for omega, Initial residual = 7.69745e-05, Final residual = 1.22094e-09, No Iterations 2
DILUPBiCGStab:  Solving for k, Initial residual = 0.00398177, Final residual = 1.97365e-09, No Iterations 3

ExecutionTime = 292.64 s  ClockTime = 293 s

    Overall     = 0.00119877, 0.01
Time = 2498

diagonal:  Solving for rho, Initial residual = 0, Final residual = 0, No Iterations 0

Execution time for mesh.update() = 0 s

DILUPBiCGStab:  Solving for Ux, Initial residual = 0.00429263, Final residual = 3.91395e-09, No Iterations 3
DILUPBiCGStab:  Solving for Uy, Initial residual = 0.00426704, Final residual = 5.62934e-09, No Iterations 3
DILUPBiCGStab:  Solving for O2, Initial residual = 0.00154631, Final residual = 1.6432e-09, No Iterations 3
DILUPBiCGStab:  Solving for H2O, Initial residual = 0.00154631, Final residual = 1.6432e-09, No Iterations 3
DILUPBiCGStab:  Solving for CH4, Initial residual = 0, Final residual = 0, No Iterations 0
DILUPBiCGStab:  Solving for CO2, Initial residual = 0.00154631, Final residual = 1.6432e-09, No Iterations 3
DILUPBiCGStab:  Solving for h, Initial residual = 0.00179577, Final residual = 1.83184e-09, No Iterations 3
min/max(T) = 300, 1044.97
GAMGPCG:  Solving for p_rgh, Initial residual = 0.0160195, Final residual = 7.69976e-07, No Iterations 4
diagonal:  Solving for rho, Initial residual = 0, Final residual = 0, No Iterations 0
time step continuity errors : sum local = 3.02705e-08, global = 4.10339e-09, cumulative = 1.38724e-06
GAMGPCG:  Solving for p_rgh, Initial residual = 0.00278207, Final residual = 2.76205e-07, No Iterations 4
diagonal:  Solving for rho, Initial residual = 0, Final residual = 0, No Iterations 0
time step continuity errors : sum local = 1.10449e-08, global = 7.59821e-10, cumulative = 1.388e-06
DILUPBiCGStab:  Solving for omega, Initial residual = 7.81369e-05, Final residual = 1.12807e-09, No Iterations 2
DILUPBiCGStab:  Solving for k, Initial residual = 0.00397541, Final residual = 1.77842e-09, No Iterations 3

ExecutionTime = 292.76 s  ClockTime = 293 s

    Overall     = 0.00120716, 0.01
Time = 2499

diagonal:  Solving for rho, Initial residual = 0, Final residual = 0, No Iterations 0

Execution time for mesh.update() = 0 s

DILUPBiCGStab:  Solving for Ux, Initial residual = 0.00429053, Final residual = 3.67171e-09, No Iterations 3
DILUPBiCGStab:  Solving for Uy, Initial residual = 0.00424416, Final residual = 5.42244e-09, No Iterations 3
DILUPBiCGStab:  Solving for O2, Initial residual = 0.00154449, Final residual = 1.53049e-09, No Iterations 3
DILUPBiCGStab:  Solving for H2O, Initial residual = 0.00154449, Final residual = 1.53049e-09, No Iterations 3
DILUPBiCGStab:  Solving for CH4, Initial residual = 0, Final residual = 0, No Iterations 0
DILUPBiCGStab:  Solving for CO2, Initial residual = 0.00154449, Final residual = 1.53049e-09, No Iterations 3
DILUPBiCGStab:  Solving for h, Initial residual = 0.00179485, Final residual = 1.60662e-09, No Iterations 3
min/max(T) = 300, 1044.97
GAMGPCG:  Solving for p_rgh, Initial residual = 0.0158069, Final residual = 8.09446e-07, No Iterations 4
diagonal:  Solving for rho, Initial residual = 0, Final residual = 0, No Iterations 0
time step continuity errors : sum local = 3.1928e-08, global = 4.27889e-09, cumulative = 1.39228e-06
GAMGPCG:  Solving for p_rgh, Initial residual = 0.00280031, Final residual = 2.83864e-07, No Iterations 4
diagonal:  Solving for rho, Initial residual = 0, Final residual = 0, No Iterations 0
time step continuity errors : sum local = 1.12365e-08, global = 8.29223e-10, cumulative = 1.39311e-06
DILUPBiCGStab:  Solving for omega, Initial residual = 7.8073e-05, Final residual = 1.10785e-09, No Iterations 2
DILUPBiCGStab:  Solving for k, Initial residual = 0.00397239, Final residual = 1.55985e-09, No Iterations 3

ExecutionTime = 292.87 s  ClockTime = 293 s

    Overall     = 0.00121049, 0.01
Time = 2500

diagonal:  Solving for rho, Initial residual = 0, Final residual = 0, No Iterations 0

Execution time for mesh.update() = 0.01 s

DILUPBiCGStab:  Solving for Ux, Initial residual = 0.00425837, Final residual = 3.73696e-09, No Iterations 3
DILUPBiCGStab:  Solving for Uy, Initial residual = 0.00421918, Final residual = 5.92994e-09, No Iterations 3
GAMGPCG:  Solving for G, Initial residual = 0.172986, Final residual = 2.90104e-05, No Iterations 6
DILUPBiCGStab:  Solving for O2, Initial residual = 0.00153628, Final residual = 1.70076e-09, No Iterations 3
DILUPBiCGStab:  Solving for H2O, Initial residual = 0.00153628, Final residual = 1.70076e-09, No Iterations 3
DILUPBiCGStab:  Solving for CH4, Initial residual = 0, Final residual = 0, No Iterations 0
DILUPBiCGStab:  Solving for CO2, Initial residual = 0.00153628, Final residual = 1.70076e-09, No Iterations 3
DILUPBiCGStab:  Solving for h, Initial residual = 0.00178564, Final residual = 1.70793e-09, No Iterations 3
min/max(T) = 300, 1044.97
GAMGPCG:  Solving for p_rgh, Initial residual = 0.0157966, Final residual = 8.53819e-07, No Iterations 4
diagonal:  Solving for rho, Initial residual = 0, Final residual = 0, No Iterations 0
time step continuity errors : sum local = 3.32548e-08, global = 3.77859e-09, cumulative = 1.39689e-06
GAMGPCG:  Solving for p_rgh, Initial residual = 0.0027944, Final residual = 2.89962e-07, No Iterations 4
diagonal:  Solving for rho, Initial residual = 0, Final residual = 0, No Iterations 0
time step continuity errors : sum local = 1.1413e-08, global = 8.81124e-10, cumulative = 1.39777e-06
DILUPBiCGStab:  Solving for omega, Initial residual = 7.75877e-05, Final residual = 1.09243e-09, No Iterations 2
DILUPBiCGStab:  Solving for k, Initial residual = 0.0039532, Final residual = 1.69227e-09, No Iterations 3

ExecutionTime = 293.13 s  ClockTime = 294 s


Patch Mean : 303.086
Patch Variance : 0.00232831
Patch Gradient : 0.216269
End
