/*---------------------------------------------------------------------------*\
  =========                 |
  \\      /  F ield         | OpenFOAM: The Open Source CFD Toolbox
   \\    /   O peration     | Website:  https://openfoam.org
    \\  /    A nd           | Version:  dev
     \\/     M anipulation  |
\*---------------------------------------------------------------------------*/
Build  : dev-cabe48fb62c1
Exec   : fireDyMFoam
Date   : Apr 15 2019
Time   : 14:19:35
Host   : "Host"
PID    : 8428
I/O    : uncollated
Case   : /home/tesla/OpenFOAM/tesla-dev/run/rollerOpt_COBYLA_NEW
nProcs : 1
sigFpe : Enabling floating point exception trapping (FOAM_SIGFPE).
fileModificationChecking : Monitoring run-time modified files using timeStampMaster (fileModificationSkew 10)
allowSystemOperations : Allowing user-supplied system call operations

// * * * * * * * * * * * * * * * * * * * * * * * * * * * * * * * * * * * * * //
Create time

--> FOAM Warning : 
    From function void* Foam::dlOpen(const Foam::fileName&, bool)
    in file POSIX.C at line 1268
    dlopen error : libgroovyBC.so: cannot open shared object file: No such file or directory
--> FOAM Warning : 
    From function bool Foam::dlLibraryTable::open(const Foam::fileName&, bool)
    in file db/dynamicLibrary/dlLibraryTable/dlLibraryTable.C at line 105
    could not load "libgroovyBC.so"
Create mesh for time = 250

Selecting dynamicFvMesh dynamicRefineFvMesh
Detected 542 cells that are protected from refinement. Writing these to cellSet protectedCells.

PIMPLE: No convergence criteria found


PIMPLE: Operating solver in PISO mode


Initializing Solver

Selecting thermodynamics package 
{
    type            hePsiThermo;
    mixture         reactingMixture;
    transport       sutherland;
    thermo          janaf;
    energy          sensibleEnthalpy;
    equationOfState perfectGas;
    specie          specie;
}

Selecting chemistryReader foamChemistryReader
    elements not defined in "/home/tesla/OpenFOAM/tesla-dev/run/rollerOpt_COBYLA_NEW/constant/reactions"
Reading/calculating face flux field phi

No MRF models present

Selecting turbulence model type RAS
Selecting RAS turbulence model kOmegaSST
Selecting patchDistMethod meshWave
kOmegaSSTCoeffs
{
    delta           cubeRootVol;
    cubeRootVolCoeffs
    {
        deltaCoeff      1;
    }
    alphaK1         0.85;
    alphaK2         1;
    alphaOmega1     0.5;
    alphaOmega2     0.856;
    gamma1          0.555556;
    gamma2          0.44;
    beta1           0.075;
    beta2           0.0828;
    betaStar        0.09;
    a1              0.31;
    b1              1;
    c1              10;
    F3              false;
}

Selecting combustion model none<psiThermoCombustion>
--> FOAM Warning : 
    From function static Foam::autoPtr<T> Foam::combustionModel::New(typename CombustionModel::reactionThermo&, const Foam::compressibleTurbulenceModel&, const Foam::word&) [with CombustionModel = Foam::CombustionModel<Foam::psiReactionThermo>; typename CombustionModel::reactionThermo = Foam::psiReactionThermo]
    in file /home/tesla/OpenFOAM/OpenFOAM-dev/src/combustionModels/lnInclude/combustionModelTemplates.C at line 69
    Template parameters are no longer required when selecting a combustionModel. This information is now obtained directly from the thermodynamics. Actually selecting combustion model none.

Reading g

Reading hRef
Calculating field g.h


Reading pRef
Selecting radiationModel P1
Selecting absorptionEmissionModel greyMeanAbsorptionEmission
Selecting scatterModel none
Selecting sootModel none
Creating finite volume options from "system/fvOptions"

No finite volume options present
Using LTS

Starting time loop

Using dynamicCode for functionObject patchCalcs at line 64 in "/home/tesla/OpenFOAM/tesla-dev/run/rollerOpt_COBYLA_NEW/system/controlDict.functions.patchCalcs"
    Overall     = 0.0013691, 0.01
Time = 251

diagonal:  Solving for rho, Initial residual = 0, Final residual = 0, No Iterations 0

Execution time for mesh.update() = 0 s

DILUPBiCGStab:  Solving for Ux, Initial residual = 0.00481519, Final residual = 4.06767e-09, No Iterations 3
DILUPBiCGStab:  Solving for Uy, Initial residual = 0.00773966, Final residual = 6.59929e-09, No Iterations 3
GAMGPCG:  Solving for G, Initial residual = 0.0256176, Final residual = 4.11616e-05, No Iterations 4
DILUPBiCGStab:  Solving for O2, Initial residual = 0.00265309, Final residual = 2.6968e-09, No Iterations 3
DILUPBiCGStab:  Solving for H2O, Initial residual = 0.00265305, Final residual = 2.69716e-09, No Iterations 3
DILUPBiCGStab:  Solving for CH4, Initial residual = 0, Final residual = 0, No Iterations 0
DILUPBiCGStab:  Solving for CO2, Initial residual = 0.00265305, Final residual = 2.69721e-09, No Iterations 3
DILUPBiCGStab:  Solving for h, Initial residual = 0.00297093, Final residual = 2.71197e-09, No Iterations 3
min/max(T) = 300, 1044.98
GAMGPCG:  Solving for p_rgh, Initial residual = 0.0189489, Final residual = 2.28049e-07, No Iterations 5
diagonal:  Solving for rho, Initial residual = 0, Final residual = 0, No Iterations 0
time step continuity errors : sum local = 2.46706e-06, global = -1.3333e-07, cumulative = -1.3333e-07
GAMGPCG:  Solving for p_rgh, Initial residual = 0.00233859, Final residual = 1.68567e-07, No Iterations 4
diagonal:  Solving for rho, Initial residual = 0, Final residual = 0, No Iterations 0
time step continuity errors : sum local = 2.46432e-06, global = -1.31201e-07, cumulative = -2.64531e-07
DILUPBiCGStab:  Solving for omega, Initial residual = 0.000110643, Final residual = 1.90311e-09, No Iterations 2
DILUPBiCGStab:  Solving for k, Initial residual = 0.00494562, Final residual = 3.38111e-09, No Iterations 3

ExecutionTime = 0.37 s  ClockTime = 0 s

    Overall     = 0.00137041, 0.01
Time = 252

diagonal:  Solving for rho, Initial residual = 0, Final residual = 0, No Iterations 0

Execution time for mesh.update() = 0 s

DILUPBiCGStab:  Solving for Ux, Initial residual = 0.00481699, Final residual = 4.16758e-09, No Iterations 3
DILUPBiCGStab:  Solving for Uy, Initial residual = 0.00773961, Final residual = 7.18272e-09, No Iterations 3
DILUPBiCGStab:  Solving for O2, Initial residual = 0.00265051, Final residual = 2.56373e-09, No Iterations 3
DILUPBiCGStab:  Solving for H2O, Initial residual = 0.0026505, Final residual = 2.56387e-09, No Iterations 3
DILUPBiCGStab:  Solving for CH4, Initial residual = 0, Final residual = 0, No Iterations 0
DILUPBiCGStab:  Solving for CO2, Initial residual = 0.0026505, Final residual = 2.56388e-09, No Iterations 3
DILUPBiCGStab:  Solving for h, Initial residual = 0.00297025, Final residual = 2.55233e-09, No Iterations 3
min/max(T) = 300, 1044.98
GAMGPCG:  Solving for p_rgh, Initial residual = 0.0189047, Final residual = 2.22096e-07, No Iterations 5
diagonal:  Solving for rho, Initial residual = 0, Final residual = 0, No Iterations 0
time step continuity errors : sum local = 1.35971e-08, global = -1.44941e-09, cumulative = -2.6598e-07
GAMGPCG:  Solving for p_rgh, Initial residual = 0.00229232, Final residual = 3.3512e-07, No Iterations 4
diagonal:  Solving for rho, Initial residual = 0, Final residual = 0, No Iterations 0
time step continuity errors : sum local = 1.9615e-08, global = 6.12982e-10, cumulative = -2.65367e-07
DILUPBiCGStab:  Solving for omega, Initial residual = 0.000110909, Final residual = 1.91107e-09, No Iterations 2
DILUPBiCGStab:  Solving for k, Initial residual = 0.00494101, Final residual = 3.24376e-09, No Iterations 3

ExecutionTime = 0.49 s  ClockTime = 0 s

    Overall     = 0.00137226, 0.01
Time = 253

diagonal:  Solving for rho, Initial residual = 0, Final residual = 0, No Iterations 0

Execution time for mesh.update() = 0 s

DILUPBiCGStab:  Solving for Ux, Initial residual = 0.0048312, Final residual = 4.09442e-09, No Iterations 3
DILUPBiCGStab:  Solving for Uy, Initial residual = 0.00771165, Final residual = 7.1708e-09, No Iterations 3
DILUPBiCGStab:  Solving for O2, Initial residual = 0.0026577, Final residual = 2.52323e-09, No Iterations 3
DILUPBiCGStab:  Solving for H2O, Initial residual = 0.0026577, Final residual = 2.52322e-09, No Iterations 3
DILUPBiCGStab:  Solving for CH4, Initial residual = 0, Final residual = 0, No Iterations 0
DILUPBiCGStab:  Solving for CO2, Initial residual = 0.0026577, Final residual = 2.52321e-09, No Iterations 3
DILUPBiCGStab:  Solving for h, Initial residual = 0.00298241, Final residual = 2.50865e-09, No Iterations 3
min/max(T) = 300, 1044.98
GAMGPCG:  Solving for p_rgh, Initial residual = 0.019379, Final residual = 2.16363e-07, No Iterations 5
diagonal:  Solving for rho, Initial residual = 0, Final residual = 0, No Iterations 0
time step continuity errors : sum local = 1.31545e-08, global = -1.45395e-09, cumulative = -2.66821e-07
GAMGPCG:  Solving for p_rgh, Initial residual = 0.00229716, Final residual = 1.61453e-07, No Iterations 4
diagonal:  Solving for rho, Initial residual = 0, Final residual = 0, No Iterations 0
time step continuity errors : sum local = 9.46666e-09, global = 6.80959e-10, cumulative = -2.6614e-07
DILUPBiCGStab:  Solving for omega, Initial residual = 0.000109707, Final residual = 1.93979e-09, No Iterations 2
DILUPBiCGStab:  Solving for k, Initial residual = 0.00494129, Final residual = 3.36333e-09, No Iterations 3

ExecutionTime = 0.61 s  ClockTime = 0 s

    Overall     = 0.00137394, 0.01
Time = 254

diagonal:  Solving for rho, Initial residual = 0, Final residual = 0, No Iterations 0

Execution time for mesh.update() = 0 s

DILUPBiCGStab:  Solving for Ux, Initial residual = 0.00483781, Final residual = 4.0835e-09, No Iterations 3
DILUPBiCGStab:  Solving for Uy, Initial residual = 0.00773387, Final residual = 7.07677e-09, No Iterations 3
DILUPBiCGStab:  Solving for O2, Initial residual = 0.0026627, Final residual = 2.5539e-09, No Iterations 3
DILUPBiCGStab:  Solving for H2O, Initial residual = 0.0026627, Final residual = 2.55382e-09, No Iterations 3
DILUPBiCGStab:  Solving for CH4, Initial residual = 0, Final residual = 0, No Iterations 0
DILUPBiCGStab:  Solving for CO2, Initial residual = 0.0026627, Final residual = 2.5538e-09, No Iterations 3
DILUPBiCGStab:  Solving for h, Initial residual = 0.00298611, Final residual = 2.55517e-09, No Iterations 3
min/max(T) = 300, 1044.98
GAMGPCG:  Solving for p_rgh, Initial residual = 0.0194727, Final residual = 2.32911e-07, No Iterations 5
diagonal:  Solving for rho, Initial residual = 0, Final residual = 0, No Iterations 0
time step continuity errors : sum local = 1.40136e-08, global = -1.2771e-09, cumulative = -2.67417e-07
GAMGPCG:  Solving for p_rgh, Initial residual = 0.00233891, Final residual = 3.43628e-07, No Iterations 4
diagonal:  Solving for rho, Initial residual = 0, Final residual = 0, No Iterations 0
time step continuity errors : sum local = 1.99419e-08, global = 6.35137e-10, cumulative = -2.66782e-07
DILUPBiCGStab:  Solving for omega, Initial residual = 0.000111131, Final residual = 1.92913e-09, No Iterations 2
DILUPBiCGStab:  Solving for k, Initial residual = 0.00494626, Final residual = 4.19007e-09, No Iterations 3

ExecutionTime = 0.73 s  ClockTime = 0 s

    Overall     = 0.00137598, 0.01
Time = 255

diagonal:  Solving for rho, Initial residual = 0, Final residual = 0, No Iterations 0

Execution time for mesh.update() = 0 s

DILUPBiCGStab:  Solving for Ux, Initial residual = 0.0048567, Final residual = 4.01552e-09, No Iterations 3
DILUPBiCGStab:  Solving for Uy, Initial residual = 0.00770678, Final residual = 7.50266e-09, No Iterations 3
DILUPBiCGStab:  Solving for O2, Initial residual = 0.00265932, Final residual = 2.31556e-09, No Iterations 3
DILUPBiCGStab:  Solving for H2O, Initial residual = 0.00265932, Final residual = 2.31545e-09, No Iterations 3
DILUPBiCGStab:  Solving for CH4, Initial residual = 0, Final residual = 0, No Iterations 0
DILUPBiCGStab:  Solving for CO2, Initial residual = 0.00265932, Final residual = 2.31545e-09, No Iterations 3
DILUPBiCGStab:  Solving for h, Initial residual = 0.00298472, Final residual = 2.37017e-09, No Iterations 3
min/max(T) = 300, 1044.98
GAMGPCG:  Solving for p_rgh, Initial residual = 0.0190026, Final residual = 1.76457e-07, No Iterations 5
diagonal:  Solving for rho, Initial residual = 0, Final residual = 0, No Iterations 0
time step continuity errors : sum local = 1.05775e-08, global = -1.37643e-09, cumulative = -2.68159e-07
GAMGPCG:  Solving for p_rgh, Initial residual = 0.00232233, Final residual = 9.21655e-07, No Iterations 3
diagonal:  Solving for rho, Initial residual = 0, Final residual = 0, No Iterations 0
time step continuity errors : sum local = 5.29889e-08, global = -2.46777e-09, cumulative = -2.70627e-07
DILUPBiCGStab:  Solving for omega, Initial residual = 0.000109303, Final residual = 1.89693e-09, No Iterations 2
DILUPBiCGStab:  Solving for k, Initial residual = 0.00494882, Final residual = 4.91953e-09, No Iterations 3

ExecutionTime = 0.85 s  ClockTime = 0 s

    Overall     = 0.00137838, 0.01
Time = 256

diagonal:  Solving for rho, Initial residual = 0, Final residual = 0, No Iterations 0

Execution time for mesh.update() = 0 s

DILUPBiCGStab:  Solving for Ux, Initial residual = 0.0048525, Final residual = 4.07345e-09, No Iterations 3
DILUPBiCGStab:  Solving for Uy, Initial residual = 0.00772284, Final residual = 6.95391e-09, No Iterations 3
DILUPBiCGStab:  Solving for O2, Initial residual = 0.00266481, Final residual = 2.57131e-09, No Iterations 3
DILUPBiCGStab:  Solving for H2O, Initial residual = 0.00266481, Final residual = 2.5712e-09, No Iterations 3
DILUPBiCGStab:  Solving for CH4, Initial residual = 0, Final residual = 0, No Iterations 0
DILUPBiCGStab:  Solving for CO2, Initial residual = 0.00266481, Final residual = 2.57121e-09, No Iterations 3
DILUPBiCGStab:  Solving for h, Initial residual = 0.00299653, Final residual = 2.66776e-09, No Iterations 3
min/max(T) = 300, 1044.98
GAMGPCG:  Solving for p_rgh, Initial residual = 0.0187993, Final residual = 9.36128e-07, No Iterations 4
diagonal:  Solving for rho, Initial residual = 0, Final residual = 0, No Iterations 0
time step continuity errors : sum local = 5.69698e-08, global = 1.59395e-09, cumulative = -2.69033e-07
GAMGPCG:  Solving for p_rgh, Initial residual = 0.00228971, Final residual = 3.10937e-07, No Iterations 4
diagonal:  Solving for rho, Initial residual = 0, Final residual = 0, No Iterations 0
time step continuity errors : sum local = 1.78917e-08, global = 2.88831e-10, cumulative = -2.68744e-07
DILUPBiCGStab:  Solving for omega, Initial residual = 0.000108635, Final residual = 1.79718e-09, No Iterations 2
DILUPBiCGStab:  Solving for k, Initial residual = 0.00495178, Final residual = 8.07394e-10, No Iterations 3

ExecutionTime = 0.96 s  ClockTime = 1 s

    Overall     = 0.00138115, 0.01
Time = 257

diagonal:  Solving for rho, Initial residual = 0, Final residual = 0, No Iterations 0

Execution time for mesh.update() = 0 s

DILUPBiCGStab:  Solving for Ux, Initial residual = 0.00485009, Final residual = 4.04564e-09, No Iterations 3
DILUPBiCGStab:  Solving for Uy, Initial residual = 0.00765936, Final residual = 7.38301e-09, No Iterations 3
DILUPBiCGStab:  Solving for O2, Initial residual = 0.00265916, Final residual = 2.37911e-09, No Iterations 3
DILUPBiCGStab:  Solving for H2O, Initial residual = 0.00265916, Final residual = 2.37909e-09, No Iterations 3
DILUPBiCGStab:  Solving for CH4, Initial residual = 0, Final residual = 0, No Iterations 0
DILUPBiCGStab:  Solving for CO2, Initial residual = 0.00265916, Final residual = 2.3791e-09, No Iterations 3
DILUPBiCGStab:  Solving for h, Initial residual = 0.00298996, Final residual = 2.26621e-09, No Iterations 3
min/max(T) = 300, 1044.98
GAMGPCG:  Solving for p_rgh, Initial residual = 0.0186122, Final residual = 8.02423e-07, No Iterations 4
diagonal:  Solving for rho, Initial residual = 0, Final residual = 0, No Iterations 0
time step continuity errors : sum local = 4.87061e-08, global = -7.20497e-10, cumulative = -2.69464e-07
GAMGPCG:  Solving for p_rgh, Initial residual = 0.00227107, Final residual = 9.87141e-07, No Iterations 3
diagonal:  Solving for rho, Initial residual = 0, Final residual = 0, No Iterations 0
time step continuity errors : sum local = 5.5956e-08, global = -1.55652e-09, cumulative = -2.71021e-07
DILUPBiCGStab:  Solving for omega, Initial residual = 0.000109201, Final residual = 1.73301e-09, No Iterations 2
DILUPBiCGStab:  Solving for k, Initial residual = 0.00495023, Final residual = 9.57284e-09, No Iterations 3

ExecutionTime = 1.08 s  ClockTime = 1 s

    Overall     = 0.00138433, 0.01
Time = 258

diagonal:  Solving for rho, Initial residual = 0, Final residual = 0, No Iterations 0

Execution time for mesh.update() = 0 s

DILUPBiCGStab:  Solving for Ux, Initial residual = 0.00484765, Final residual = 4.23688e-09, No Iterations 3
DILUPBiCGStab:  Solving for Uy, Initial residual = 0.00763689, Final residual = 7.06296e-09, No Iterations 3
DILUPBiCGStab:  Solving for O2, Initial residual = 0.0026634, Final residual = 2.40584e-09, No Iterations 3
DILUPBiCGStab:  Solving for H2O, Initial residual = 0.0026634, Final residual = 2.40584e-09, No Iterations 3
DILUPBiCGStab:  Solving for CH4, Initial residual = 0, Final residual = 0, No Iterations 0
DILUPBiCGStab:  Solving for CO2, Initial residual = 0.0026634, Final residual = 2.40585e-09, No Iterations 3
DILUPBiCGStab:  Solving for h, Initial residual = 0.00299827, Final residual = 2.24313e-09, No Iterations 3
min/max(T) = 300, 1044.98
GAMGPCG:  Solving for p_rgh, Initial residual = 0.0184538, Final residual = 7.66905e-07, No Iterations 4
diagonal:  Solving for rho, Initial residual = 0, Final residual = 0, No Iterations 0
time step continuity errors : sum local = 4.55912e-08, global = -2.77015e-10, cumulative = -2.71298e-07
GAMGPCG:  Solving for p_rgh, Initial residual = 0.00222434, Final residual = 2.52465e-07, No Iterations 4
diagonal:  Solving for rho, Initial residual = 0, Final residual = 0, No Iterations 0
time step continuity errors : sum local = 1.42651e-08, global = 6.17941e-10, cumulative = -2.7068e-07
DILUPBiCGStab:  Solving for omega, Initial residual = 0.000108267, Final residual = 1.61459e-09, No Iterations 2
DILUPBiCGStab:  Solving for k, Initial residual = 0.00495716, Final residual = 4.02741e-09, No Iterations 3

ExecutionTime = 1.19 s  ClockTime = 1 s

    Overall     = 0.00138772, 0.01
Time = 259

diagonal:  Solving for rho, Initial residual = 0, Final residual = 0, No Iterations 0

Execution time for mesh.update() = 0 s

DILUPBiCGStab:  Solving for Ux, Initial residual = 0.00486543, Final residual = 4.30249e-09, No Iterations 3
DILUPBiCGStab:  Solving for Uy, Initial residual = 0.00764858, Final residual = 7.04908e-09, No Iterations 3
DILUPBiCGStab:  Solving for O2, Initial residual = 0.00267767, Final residual = 2.53414e-09, No Iterations 3
DILUPBiCGStab:  Solving for H2O, Initial residual = 0.00267766, Final residual = 2.53413e-09, No Iterations 3
DILUPBiCGStab:  Solving for CH4, Initial residual = 0, Final residual = 0, No Iterations 0
DILUPBiCGStab:  Solving for CO2, Initial residual = 0.00267766, Final residual = 2.53413e-09, No Iterations 3
DILUPBiCGStab:  Solving for h, Initial residual = 0.00301649, Final residual = 2.36876e-09, No Iterations 3
min/max(T) = 300, 1044.98
GAMGPCG:  Solving for p_rgh, Initial residual = 0.0198839, Final residual = 8.39072e-07, No Iterations 4
diagonal:  Solving for rho, Initial residual = 0, Final residual = 0, No Iterations 0
time step continuity errors : sum local = 4.98558e-08, global = -2.44819e-09, cumulative = -2.73128e-07
GAMGPCG:  Solving for p_rgh, Initial residual = 0.00231714, Final residual = 9.19429e-07, No Iterations 3
diagonal:  Solving for rho, Initial residual = 0, Final residual = 0, No Iterations 0
time step continuity errors : sum local = 5.24596e-08, global = 8.47921e-10, cumulative = -2.7228e-07
DILUPBiCGStab:  Solving for omega, Initial residual = 0.000108237, Final residual = 1.62831e-09, No Iterations 2
DILUPBiCGStab:  Solving for k, Initial residual = 0.00495725, Final residual = 2.65036e-09, No Iterations 3

ExecutionTime = 1.31 s  ClockTime = 1 s

    Overall     = 0.00139168, 0.01
Time = 260

diagonal:  Solving for rho, Initial residual = 0, Final residual = 0, No Iterations 0

Execution time for mesh.update() = 0 s

DILUPBiCGStab:  Solving for Ux, Initial residual = 0.00487999, Final residual = 4.65821e-09, No Iterations 3
DILUPBiCGStab:  Solving for Uy, Initial residual = 0.00768303, Final residual = 7.32604e-09, No Iterations 3
GAMGPCG:  Solving for G, Initial residual = 0.12509, Final residual = 4.30078e-05, No Iterations 6
DILUPBiCGStab:  Solving for O2, Initial residual = 0.00268087, Final residual = 2.68543e-09, No Iterations 3
DILUPBiCGStab:  Solving for H2O, Initial residual = 0.00268087, Final residual = 2.68545e-09, No Iterations 3
DILUPBiCGStab:  Solving for CH4, Initial residual = 0, Final residual = 0, No Iterations 0
DILUPBiCGStab:  Solving for CO2, Initial residual = 0.00268087, Final residual = 2.68545e-09, No Iterations 3
DILUPBiCGStab:  Solving for h, Initial residual = 0.00302475, Final residual = 2.63275e-09, No Iterations 3
min/max(T) = 300, 1044.98
GAMGPCG:  Solving for p_rgh, Initial residual = 0.019802, Final residual = 9.08724e-07, No Iterations 4
diagonal:  Solving for rho, Initial residual = 0, Final residual = 0, No Iterations 0
time step continuity errors : sum local = 5.39523e-08, global = 7.66157e-10, cumulative = -2.71514e-07
GAMGPCG:  Solving for p_rgh, Initial residual = 0.00234831, Final residual = 2.35871e-07, No Iterations 4
diagonal:  Solving for rho, Initial residual = 0, Final residual = 0, No Iterations 0
time step continuity errors : sum local = 1.32891e-08, global = 8.52389e-10, cumulative = -2.70662e-07
DILUPBiCGStab:  Solving for omega, Initial residual = 0.000108175, Final residual = 1.66151e-09, No Iterations 2
DILUPBiCGStab:  Solving for k, Initial residual = 0.00497066, Final residual = 2.54347e-09, No Iterations 3

ExecutionTime = 1.56 s  ClockTime = 1 s

    Overall     = 0.00139535, 0.01
Time = 261

diagonal:  Solving for rho, Initial residual = 0, Final residual = 0, No Iterations 0

Execution time for mesh.update() = 0 s

DILUPBiCGStab:  Solving for Ux, Initial residual = 0.00490458, Final residual = 4.8978e-09, No Iterations 3
DILUPBiCGStab:  Solving for Uy, Initial residual = 0.00766891, Final residual = 6.53539e-09, No Iterations 3
DILUPBiCGStab:  Solving for O2, Initial residual = 0.00267897, Final residual = 2.77137e-09, No Iterations 3
DILUPBiCGStab:  Solving for H2O, Initial residual = 0.00267897, Final residual = 2.7714e-09, No Iterations 3
DILUPBiCGStab:  Solving for CH4, Initial residual = 0, Final residual = 0, No Iterations 0
DILUPBiCGStab:  Solving for CO2, Initial residual = 0.00267897, Final residual = 2.77139e-09, No Iterations 3
DILUPBiCGStab:  Solving for h, Initial residual = 0.00303385, Final residual = 2.78506e-09, No Iterations 3
min/max(T) = 300, 1044.98
GAMGPCG:  Solving for p_rgh, Initial residual = 0.0206916, Final residual = 9.85592e-07, No Iterations 4
diagonal:  Solving for rho, Initial residual = 0, Final residual = 0, No Iterations 0
time step continuity errors : sum local = 5.84904e-08, global = -3.74579e-09, cumulative = -2.74407e-07
GAMGPCG:  Solving for p_rgh, Initial residual = 0.00235955, Final residual = 8.71214e-07, No Iterations 3
diagonal:  Solving for rho, Initial residual = 0, Final residual = 0, No Iterations 0
time step continuity errors : sum local = 4.99795e-08, global = -1.61909e-10, cumulative = -2.74569e-07
DILUPBiCGStab:  Solving for omega, Initial residual = 0.000107821, Final residual = 1.78699e-09, No Iterations 2
DILUPBiCGStab:  Solving for k, Initial residual = 0.00496593, Final residual = 2.68833e-09, No Iterations 3

ExecutionTime = 1.68 s  ClockTime = 1 s

    Overall     = 0.0014001, 0.01
Time = 262

diagonal:  Solving for rho, Initial residual = 0, Final residual = 0, No Iterations 0

Execution time for mesh.update() = 0 s

DILUPBiCGStab:  Solving for Ux, Initial residual = 0.00492371, Final residual = 5.23916e-09, No Iterations 3
DILUPBiCGStab:  Solving for Uy, Initial residual = 0.00767773, Final residual = 6.79239e-09, No Iterations 3
DILUPBiCGStab:  Solving for O2, Initial residual = 0.00269096, Final residual = 2.88097e-09, No Iterations 3
DILUPBiCGStab:  Solving for H2O, Initial residual = 0.00269095, Final residual = 2.88101e-09, No Iterations 3
DILUPBiCGStab:  Solving for CH4, Initial residual = 0, Final residual = 0, No Iterations 0
DILUPBiCGStab:  Solving for CO2, Initial residual = 0.00269095, Final residual = 2.881e-09, No Iterations 3
DILUPBiCGStab:  Solving for h, Initial residual = 0.00305016, Final residual = 2.96251e-09, No Iterations 3
min/max(T) = 300, 1044.98
GAMGPCG:  Solving for p_rgh, Initial residual = 0.0205234, Final residual = 2.21179e-07, No Iterations 5
diagonal:  Solving for rho, Initial residual = 0, Final residual = 0, No Iterations 0
time step continuity errors : sum local = 1.29614e-08, global = -3.04759e-11, cumulative = -2.746e-07
GAMGPCG:  Solving for p_rgh, Initial residual = 0.00238399, Final residual = 2.66742e-07, No Iterations 4
diagonal:  Solving for rho, Initial residual = 0, Final residual = 0, No Iterations 0
time step continuity errors : sum local = 1.5043e-08, global = 6.23426e-11, cumulative = -2.74537e-07
DILUPBiCGStab:  Solving for omega, Initial residual = 0.000107664, Final residual = 1.91369e-09, No Iterations 2
DILUPBiCGStab:  Solving for k, Initial residual = 0.00496563, Final residual = 2.92234e-09, No Iterations 3

ExecutionTime = 1.79 s  ClockTime = 1 s

    Overall     = 0.00140454, 0.01
Time = 263

diagonal:  Solving for rho, Initial residual = 0, Final residual = 0, No Iterations 0

Execution time for mesh.update() = 0.01 s

DILUPBiCGStab:  Solving for Ux, Initial residual = 0.00493921, Final residual = 5.22723e-09, No Iterations 3
DILUPBiCGStab:  Solving for Uy, Initial residual = 0.00768695, Final residual = 6.18729e-09, No Iterations 3
DILUPBiCGStab:  Solving for O2, Initial residual = 0.00269339, Final residual = 2.9413e-09, No Iterations 3
DILUPBiCGStab:  Solving for H2O, Initial residual = 0.00269338, Final residual = 2.94134e-09, No Iterations 3
DILUPBiCGStab:  Solving for CH4, Initial residual = 0, Final residual = 0, No Iterations 0
DILUPBiCGStab:  Solving for CO2, Initial residual = 0.00269338, Final residual = 2.94133e-09, No Iterations 3
DILUPBiCGStab:  Solving for h, Initial residual = 0.00305106, Final residual = 3.00641e-09, No Iterations 3
min/max(T) = 300, 1044.98
GAMGPCG:  Solving for p_rgh, Initial residual = 0.0207383, Final residual = 8.30317e-07, No Iterations 4
diagonal:  Solving for rho, Initial residual = 0, Final residual = 0, No Iterations 0
time step continuity errors : sum local = 4.9425e-08, global = -1.68147e-09, cumulative = -2.76219e-07
GAMGPCG:  Solving for p_rgh, Initial residual = 0.00241388, Final residual = 8.83093e-07, No Iterations 3
diagonal:  Solving for rho, Initial residual = 0, Final residual = 0, No Iterations 0
time step continuity errors : sum local = 5.08946e-08, global = 5.91711e-10, cumulative = -2.75627e-07
DILUPBiCGStab:  Solving for omega, Initial residual = 0.000106878, Final residual = 2.07777e-09, No Iterations 2
DILUPBiCGStab:  Solving for k, Initial residual = 0.00497046, Final residual = 3.41789e-09, No Iterations 3

ExecutionTime = 1.91 s  ClockTime = 2 s

    Overall     = 0.00141075, 0.01
Time = 264

diagonal:  Solving for rho, Initial residual = 0, Final residual = 0, No Iterations 0

Execution time for mesh.update() = 0 s

DILUPBiCGStab:  Solving for Ux, Initial residual = 0.00494162, Final residual = 5.77189e-09, No Iterations 3
DILUPBiCGStab:  Solving for Uy, Initial residual = 0.00766604, Final residual = 6.70716e-09, No Iterations 3
DILUPBiCGStab:  Solving for O2, Initial residual = 0.00269664, Final residual = 2.88641e-09, No Iterations 3
DILUPBiCGStab:  Solving for H2O, Initial residual = 0.00269663, Final residual = 2.88644e-09, No Iterations 3
DILUPBiCGStab:  Solving for CH4, Initial residual = 0, Final residual = 0, No Iterations 0
DILUPBiCGStab:  Solving for CO2, Initial residual = 0.00269663, Final residual = 2.88643e-09, No Iterations 3
DILUPBiCGStab:  Solving for h, Initial residual = 0.0030619, Final residual = 3.00615e-09, No Iterations 3
min/max(T) = 300, 1044.98
GAMGPCG:  Solving for p_rgh, Initial residual = 0.0212018, Final residual = 8.30249e-07, No Iterations 4
diagonal:  Solving for rho, Initial residual = 0, Final residual = 0, No Iterations 0
time step continuity errors : sum local = 4.97029e-08, global = -1.0269e-09, cumulative = -2.76654e-07
GAMGPCG:  Solving for p_rgh, Initial residual = 0.00236737, Final residual = 1.99497e-07, No Iterations 4
diagonal:  Solving for rho, Initial residual = 0, Final residual = 0, No Iterations 0
time step continuity errors : sum local = 1.12759e-08, global = 1.89143e-10, cumulative = -2.76465e-07
DILUPBiCGStab:  Solving for omega, Initial residual = 0.000107866, Final residual = 2.08359e-09, No Iterations 2
DILUPBiCGStab:  Solving for k, Initial residual = 0.0049739, Final residual = 4.01674e-09, No Iterations 3

ExecutionTime = 2.02 s  ClockTime = 2 s

    Overall     = 0.00141641, 0.01
Time = 265

diagonal:  Solving for rho, Initial residual = 0, Final residual = 0, No Iterations 0

Execution time for mesh.update() = 0.01 s

DILUPBiCGStab:  Solving for Ux, Initial residual = 0.00495192, Final residual = 5.63913e-09, No Iterations 3
DILUPBiCGStab:  Solving for Uy, Initial residual = 0.00767922, Final residual = 6.58006e-09, No Iterations 3
DILUPBiCGStab:  Solving for O2, Initial residual = 0.00269569, Final residual = 2.85046e-09, No Iterations 3
DILUPBiCGStab:  Solving for H2O, Initial residual = 0.00269569, Final residual = 2.85049e-09, No Iterations 3
DILUPBiCGStab:  Solving for CH4, Initial residual = 0, Final residual = 0, No Iterations 0
DILUPBiCGStab:  Solving for CO2, Initial residual = 0.00269569, Final residual = 2.85048e-09, No Iterations 3
DILUPBiCGStab:  Solving for h, Initial residual = 0.0030649, Final residual = 2.98289e-09, No Iterations 3
min/max(T) = 300, 1044.98
GAMGPCG:  Solving for p_rgh, Initial residual = 0.020907, Final residual = 8.03833e-07, No Iterations 4
diagonal:  Solving for rho, Initial residual = 0, Final residual = 0, No Iterations 0
time step continuity errors : sum local = 4.80856e-08, global = -2.60916e-09, cumulative = -2.79074e-07
GAMGPCG:  Solving for p_rgh, Initial residual = 0.00240629, Final residual = 7.74987e-07, No Iterations 3
diagonal:  Solving for rho, Initial residual = 0, Final residual = 0, No Iterations 0
time step continuity errors : sum local = 4.42948e-08, global = -3.35748e-10, cumulative = -2.7941e-07
DILUPBiCGStab:  Solving for omega, Initial residual = 0.000107106, Final residual = 2.12785e-09, No Iterations 2
DILUPBiCGStab:  Solving for k, Initial residual = 0.00496804, Final residual = 4.29412e-09, No Iterations 3

ExecutionTime = 2.14 s  ClockTime = 2 s

    Overall     = 0.00142416, 0.01
Time = 266

diagonal:  Solving for rho, Initial residual = 0, Final residual = 0, No Iterations 0

Execution time for mesh.update() = 0 s

DILUPBiCGStab:  Solving for Ux, Initial residual = 0.00495009, Final residual = 5.74384e-09, No Iterations 3
DILUPBiCGStab:  Solving for Uy, Initial residual = 0.00766709, Final residual = 7.23174e-09, No Iterations 3
DILUPBiCGStab:  Solving for O2, Initial residual = 0.00270398, Final residual = 2.82524e-09, No Iterations 3
DILUPBiCGStab:  Solving for H2O, Initial residual = 0.00270398, Final residual = 2.82528e-09, No Iterations 3
DILUPBiCGStab:  Solving for CH4, Initial residual = 0, Final residual = 0, No Iterations 0
DILUPBiCGStab:  Solving for CO2, Initial residual = 0.00270398, Final residual = 2.82527e-09, No Iterations 3
DILUPBiCGStab:  Solving for h, Initial residual = 0.00308101, Final residual = 2.91968e-09, No Iterations 3
min/max(T) = 300, 1044.98
GAMGPCG:  Solving for p_rgh, Initial residual = 0.0214191, Final residual = 8.45482e-07, No Iterations 4
diagonal:  Solving for rho, Initial residual = 0, Final residual = 0, No Iterations 0
time step continuity errors : sum local = 5.03771e-08, global = 1.00131e-09, cumulative = -2.78409e-07
GAMGPCG:  Solving for p_rgh, Initial residual = 0.00240226, Final residual = 2.0837e-07, No Iterations 4
diagonal:  Solving for rho, Initial residual = 0, Final residual = 0, No Iterations 0
time step continuity errors : sum local = 1.18324e-08, global = -1.13645e-09, cumulative = -2.79545e-07
DILUPBiCGStab:  Solving for omega, Initial residual = 0.000107468, Final residual = 2.14621e-09, No Iterations 2
DILUPBiCGStab:  Solving for k, Initial residual = 0.00498462, Final residual = 4.3763e-09, No Iterations 3

ExecutionTime = 2.25 s  ClockTime = 2 s

    Overall     = 0.0014305, 0.01
Time = 267

diagonal:  Solving for rho, Initial residual = 0, Final residual = 0, No Iterations 0

Execution time for mesh.update() = 0 s

DILUPBiCGStab:  Solving for Ux, Initial residual = 0.00496939, Final residual = 5.5444e-09, No Iterations 3
DILUPBiCGStab:  Solving for Uy, Initial residual = 0.00767052, Final residual = 7.53016e-09, No Iterations 3
DILUPBiCGStab:  Solving for O2, Initial residual = 0.00270059, Final residual = 2.86689e-09, No Iterations 3
DILUPBiCGStab:  Solving for H2O, Initial residual = 0.00270058, Final residual = 2.86692e-09, No Iterations 3
DILUPBiCGStab:  Solving for CH4, Initial residual = 0, Final residual = 0, No Iterations 0
DILUPBiCGStab:  Solving for CO2, Initial residual = 0.00270058, Final residual = 2.86691e-09, No Iterations 3
DILUPBiCGStab:  Solving for h, Initial residual = 0.00307537, Final residual = 3.01322e-09, No Iterations 3
min/max(T) = 300, 1044.98
GAMGPCG:  Solving for p_rgh, Initial residual = 0.0212592, Final residual = 6.41e-07, No Iterations 4
diagonal:  Solving for rho, Initial residual = 0, Final residual = 0, No Iterations 0
time step continuity errors : sum local = 3.83601e-08, global = -7.73795e-09, cumulative = -2.87283e-07
GAMGPCG:  Solving for p_rgh, Initial residual = 0.00241464, Final residual = 7.23345e-07, No Iterations 3
diagonal:  Solving for rho, Initial residual = 0, Final residual = 0, No Iterations 0
time step continuity errors : sum local = 4.08189e-08, global = -2.14165e-09, cumulative = -2.89425e-07
DILUPBiCGStab:  Solving for omega, Initial residual = 0.000107513, Final residual = 2.26599e-09, No Iterations 2
DILUPBiCGStab:  Solving for k, Initial residual = 0.00498097, Final residual = 4.38667e-09, No Iterations 3

ExecutionTime = 2.37 s  ClockTime = 2 s

    Overall     = 0.00144049, 0.01
Time = 268

diagonal:  Solving for rho, Initial residual = 0, Final residual = 0, No Iterations 0

Execution time for mesh.update() = 0 s

DILUPBiCGStab:  Solving for Ux, Initial residual = 0.00496189, Final residual = 5.92448e-09, No Iterations 3
DILUPBiCGStab:  Solving for Uy, Initial residual = 0.00764052, Final residual = 8.11464e-09, No Iterations 3
DILUPBiCGStab:  Solving for O2, Initial residual = 0.00270494, Final residual = 2.63422e-09, No Iterations 3
DILUPBiCGStab:  Solving for H2O, Initial residual = 0.00270494, Final residual = 2.63425e-09, No Iterations 3
DILUPBiCGStab:  Solving for CH4, Initial residual = 0, Final residual = 0, No Iterations 0
DILUPBiCGStab:  Solving for CO2, Initial residual = 0.00270494, Final residual = 2.63424e-09, No Iterations 3
DILUPBiCGStab:  Solving for h, Initial residual = 0.00308965, Final residual = 2.87227e-09, No Iterations 3
min/max(T) = 300, 1044.98
GAMGPCG:  Solving for p_rgh, Initial residual = 0.0210028, Final residual = 7.20716e-07, No Iterations 4
diagonal:  Solving for rho, Initial residual = 0, Final residual = 0, No Iterations 0
time step continuity errors : sum local = 4.27313e-08, global = 8.13803e-10, cumulative = -2.88611e-07
GAMGPCG:  Solving for p_rgh, Initial residual = 0.0024097, Final residual = 9.013e-07, No Iterations 3
diagonal:  Solving for rho, Initial residual = 0, Final residual = 0, No Iterations 0
time step continuity errors : sum local = 5.04833e-08, global = 2.65817e-09, cumulative = -2.85953e-07
DILUPBiCGStab:  Solving for omega, Initial residual = 0.000107167, Final residual = 2.32082e-09, No Iterations 2
DILUPBiCGStab:  Solving for k, Initial residual = 0.00498784, Final residual = 4.42115e-09, No Iterations 3

ExecutionTime = 2.48 s  ClockTime = 2 s

    Overall     = 0.00144698, 0.01
Time = 269

diagonal:  Solving for rho, Initial residual = 0, Final residual = 0, No Iterations 0

Execution time for mesh.update() = 0 s

DILUPBiCGStab:  Solving for Ux, Initial residual = 0.00499187, Final residual = 6.53561e-09, No Iterations 3
DILUPBiCGStab:  Solving for Uy, Initial residual = 0.00765776, Final residual = 7.83696e-09, No Iterations 3
DILUPBiCGStab:  Solving for O2, Initial residual = 0.00269222, Final residual = 2.42201e-09, No Iterations 3
DILUPBiCGStab:  Solving for H2O, Initial residual = 0.00269221, Final residual = 2.42204e-09, No Iterations 3
DILUPBiCGStab:  Solving for CH4, Initial residual = 0, Final residual = 0, No Iterations 0
DILUPBiCGStab:  Solving for CO2, Initial residual = 0.00269221, Final residual = 2.42203e-09, No Iterations 3
DILUPBiCGStab:  Solving for h, Initial residual = 0.00307013, Final residual = 2.81051e-09, No Iterations 3
min/max(T) = 300, 1044.98
GAMGPCG:  Solving for p_rgh, Initial residual = 0.0209584, Final residual = 5.94063e-07, No Iterations 4
diagonal:  Solving for rho, Initial residual = 0, Final residual = 0, No Iterations 0
time step continuity errors : sum local = 3.55185e-08, global = -9.00573e-09, cumulative = -2.94958e-07
GAMGPCG:  Solving for p_rgh, Initial residual = 0.00248707, Final residual = 8.08759e-07, No Iterations 3
diagonal:  Solving for rho, Initial residual = 0, Final residual = 0, No Iterations 0
time step continuity errors : sum local = 4.61165e-08, global = 1.37188e-09, cumulative = -2.93586e-07
DILUPBiCGStab:  Solving for omega, Initial residual = 0.000107518, Final residual = 2.30727e-09, No Iterations 2
DILUPBiCGStab:  Solving for k, Initial residual = 0.0049928, Final residual = 5.40334e-09, No Iterations 3

ExecutionTime = 2.59 s  ClockTime = 2 s

    Overall     = 0.00145929, 0.01
Time = 270

diagonal:  Solving for rho, Initial residual = 0, Final residual = 0, No Iterations 0

Execution time for mesh.update() = 0 s

DILUPBiCGStab:  Solving for Ux, Initial residual = 0.00499622, Final residual = 5.75572e-09, No Iterations 3
DILUPBiCGStab:  Solving for Uy, Initial residual = 0.00761374, Final residual = 8.64188e-09, No Iterations 3
GAMGPCG:  Solving for G, Initial residual = 0.156524, Final residual = 6.12442e-05, No Iterations 6
DILUPBiCGStab:  Solving for O2, Initial residual = 0.00270559, Final residual = 2.30365e-09, No Iterations 3
DILUPBiCGStab:  Solving for H2O, Initial residual = 0.00270558, Final residual = 2.30367e-09, No Iterations 3
DILUPBiCGStab:  Solving for CH4, Initial residual = 0, Final residual = 0, No Iterations 0
DILUPBiCGStab:  Solving for CO2, Initial residual = 0.00270558, Final residual = 2.30367e-09, No Iterations 3
DILUPBiCGStab:  Solving for h, Initial residual = 0.00309425, Final residual = 2.88988e-09, No Iterations 3
min/max(T) = 300, 1044.98
GAMGPCG:  Solving for p_rgh, Initial residual = 0.0218218, Final residual = 5.66819e-07, No Iterations 4
diagonal:  Solving for rho, Initial residual = 0, Final residual = 0, No Iterations 0
time step continuity errors : sum local = 3.30459e-08, global = -4.21181e-09, cumulative = -2.97798e-07
GAMGPCG:  Solving for p_rgh, Initial residual = 0.00237018, Final residual = 2.22089e-07, No Iterations 4
diagonal:  Solving for rho, Initial residual = 0, Final residual = 0, No Iterations 0
time step continuity errors : sum local = 1.25287e-08, global = -1.40696e-09, cumulative = -2.99205e-07
DILUPBiCGStab:  Solving for omega, Initial residual = 0.000106634, Final residual = 2.07243e-09, No Iterations 2
DILUPBiCGStab:  Solving for k, Initial residual = 0.00499741, Final residual = 1.2147e-09, No Iterations 3

ExecutionTime = 2.84 s  ClockTime = 2 s

    Overall     = 0.00146299, 0.01
Time = 271

diagonal:  Solving for rho, Initial residual = 0, Final residual = 0, No Iterations 0

Execution time for mesh.update() = 0 s

DILUPBiCGStab:  Solving for Ux, Initial residual = 0.00501312, Final residual = 4.96971e-09, No Iterations 3
DILUPBiCGStab:  Solving for Uy, Initial residual = 0.00765375, Final residual = 8.0557e-09, No Iterations 3
DILUPBiCGStab:  Solving for O2, Initial residual = 0.0026965, Final residual = 2.011e-09, No Iterations 3
DILUPBiCGStab:  Solving for H2O, Initial residual = 0.0026965, Final residual = 2.011e-09, No Iterations 3
DILUPBiCGStab:  Solving for CH4, Initial residual = 0, Final residual = 0, No Iterations 0
DILUPBiCGStab:  Solving for CO2, Initial residual = 0.0026965, Final residual = 2.011e-09, No Iterations 3
DILUPBiCGStab:  Solving for h, Initial residual = 0.00308532, Final residual = 2.13758e-09, No Iterations 3
min/max(T) = 300, 1044.98
GAMGPCG:  Solving for p_rgh, Initial residual = 0.0216094, Final residual = 5.58598e-07, No Iterations 4
diagonal:  Solving for rho, Initial residual = 0, Final residual = 0, No Iterations 0
time step continuity errors : sum local = 3.27896e-08, global = -6.42387e-09, cumulative = -3.05629e-07
GAMGPCG:  Solving for p_rgh, Initial residual = 0.00251177, Final residual = 8.14914e-07, No Iterations 3
diagonal:  Solving for rho, Initial residual = 0, Final residual = 0, No Iterations 0
time step continuity errors : sum local = 4.63175e-08, global = 2.40034e-09, cumulative = -3.03229e-07
DILUPBiCGStab:  Solving for omega, Initial residual = 0.000106969, Final residual = 1.8411e-09, No Iterations 2
DILUPBiCGStab:  Solving for k, Initial residual = 0.00500451, Final residual = 1.38407e-09, No Iterations 3

ExecutionTime = 2.96 s  ClockTime = 3 s

    Overall     = 0.00147924, 0.01
Time = 272

diagonal:  Solving for rho, Initial residual = 0, Final residual = 0, No Iterations 0

Execution time for mesh.update() = 0 s

DILUPBiCGStab:  Solving for Ux, Initial residual = 0.00503756, Final residual = 5.2657e-09, No Iterations 3
DILUPBiCGStab:  Solving for Uy, Initial residual = 0.00763729, Final residual = 9.66807e-09, No Iterations 3
DILUPBiCGStab:  Solving for O2, Initial residual = 0.00271101, Final residual = 2.00587e-09, No Iterations 3
DILUPBiCGStab:  Solving for H2O, Initial residual = 0.002711, Final residual = 2.00586e-09, No Iterations 3
DILUPBiCGStab:  Solving for CH4, Initial residual = 0, Final residual = 0, No Iterations 0
DILUPBiCGStab:  Solving for CO2, Initial residual = 0.002711, Final residual = 2.00586e-09, No Iterations 3
DILUPBiCGStab:  Solving for h, Initial residual = 0.00311339, Final residual = 1.99488e-09, No Iterations 3
min/max(T) = 300, 1044.98
GAMGPCG:  Solving for p_rgh, Initial residual = 0.0224504, Final residual = 5.04267e-07, No Iterations 4
diagonal:  Solving for rho, Initial residual = 0, Final residual = 0, No Iterations 0
time step continuity errors : sum local = 2.93882e-08, global = -3.09993e-09, cumulative = -3.06329e-07
GAMGPCG:  Solving for p_rgh, Initial residual = 0.00253831, Final residual = 7.77932e-07, No Iterations 3
diagonal:  Solving for rho, Initial residual = 0, Final residual = 0, No Iterations 0
time step continuity errors : sum local = 4.40333e-08, global = 2.20819e-09, cumulative = -3.0412e-07
DILUPBiCGStab:  Solving for omega, Initial residual = 0.000106755, Final residual = 1.71575e-09, No Iterations 2
DILUPBiCGStab:  Solving for k, Initial residual = 0.00502319, Final residual = 8.73439e-10, No Iterations 3

ExecutionTime = 3.07 s  ClockTime = 3 s

    Overall     = 0.00148428, 0.01
Time = 273

diagonal:  Solving for rho, Initial residual = 0, Final residual = 0, No Iterations 0

Execution time for mesh.update() = 0 s

DILUPBiCGStab:  Solving for Ux, Initial residual = 0.00508052, Final residual = 4.67826e-09, No Iterations 3
DILUPBiCGStab:  Solving for Uy, Initial residual = 0.00768854, Final residual = 8.62125e-10, No Iterations 3
DILUPBiCGStab:  Solving for O2, Initial residual = 0.00270917, Final residual = 2.08615e-09, No Iterations 3
DILUPBiCGStab:  Solving for H2O, Initial residual = 0.00270916, Final residual = 2.08614e-09, No Iterations 3
DILUPBiCGStab:  Solving for CH4, Initial residual = 0, Final residual = 0, No Iterations 0
DILUPBiCGStab:  Solving for CO2, Initial residual = 0.00270916, Final residual = 2.08614e-09, No Iterations 3
DILUPBiCGStab:  Solving for h, Initial residual = 0.00310261, Final residual = 2.02955e-09, No Iterations 3
min/max(T) = 300, 1044.98
GAMGPCG:  Solving for p_rgh, Initial residual = 0.0222073, Final residual = 7.18787e-07, No Iterations 4
diagonal:  Solving for rho, Initial residual = 0, Final residual = 0, No Iterations 0
time step continuity errors : sum local = 4.27558e-08, global = 8.00535e-09, cumulative = -2.96115e-07
GAMGPCG:  Solving for p_rgh, Initial residual = 0.00253736, Final residual = 8.2595e-07, No Iterations 3
diagonal:  Solving for rho, Initial residual = 0, Final residual = 0, No Iterations 0
time step continuity errors : sum local = 4.61051e-08, global = 1.99012e-09, cumulative = -2.94125e-07
DILUPBiCGStab:  Solving for omega, Initial residual = 0.000108228, Final residual = 1.69953e-09, No Iterations 2
DILUPBiCGStab:  Solving for k, Initial residual = 0.00503607, Final residual = 9.31631e-09, No Iterations 3

ExecutionTime = 3.18 s  ClockTime = 3 s

    Overall     = 0.0015013, 0.01
Time = 274

diagonal:  Solving for rho, Initial residual = 0, Final residual = 0, No Iterations 0

Execution time for mesh.update() = 0 s

DILUPBiCGStab:  Solving for Ux, Initial residual = 0.00508756, Final residual = 5.04047e-09, No Iterations 3
DILUPBiCGStab:  Solving for Uy, Initial residual = 0.00763384, Final residual = 9.18239e-09, No Iterations 3
DILUPBiCGStab:  Solving for O2, Initial residual = 0.00271694, Final residual = 2.12919e-09, No Iterations 3
DILUPBiCGStab:  Solving for H2O, Initial residual = 0.00271692, Final residual = 2.12918e-09, No Iterations 3
DILUPBiCGStab:  Solving for CH4, Initial residual = 0, Final residual = 0, No Iterations 0
DILUPBiCGStab:  Solving for CO2, Initial residual = 0.00271692, Final residual = 2.12918e-09, No Iterations 3
DILUPBiCGStab:  Solving for h, Initial residual = 0.00311456, Final residual = 2.10967e-09, No Iterations 3
min/max(T) = 300, 1044.98
GAMGPCG:  Solving for p_rgh, Initial residual = 0.0222111, Final residual = 4.84848e-07, No Iterations 4
diagonal:  Solving for rho, Initial residual = 0, Final residual = 0, No Iterations 0
time step continuity errors : sum local = 2.84348e-08, global = 4.7048e-09, cumulative = -2.8942e-07
GAMGPCG:  Solving for p_rgh, Initial residual = 0.0024994, Final residual = 9.95235e-07, No Iterations 3
diagonal:  Solving for rho, Initial residual = 0, Final residual = 0, No Iterations 0
time step continuity errors : sum local = 5.51564e-08, global = 5.78507e-09, cumulative = -2.83635e-07
DILUPBiCGStab:  Solving for omega, Initial residual = 0.000108082, Final residual = 1.7149e-09, No Iterations 2
DILUPBiCGStab:  Solving for k, Initial residual = 0.00504254, Final residual = 2.06246e-11, No Iterations 4

ExecutionTime = 3.3 s  ClockTime = 3 s

    Overall     = 0.00150455, 0.01
Time = 275

diagonal:  Solving for rho, Initial residual = 0, Final residual = 0, No Iterations 0

Execution time for mesh.update() = 0 s

DILUPBiCGStab:  Solving for Ux, Initial residual = 0.00507533, Final residual = 4.94314e-09, No Iterations 3
DILUPBiCGStab:  Solving for Uy, Initial residual = 0.00763957, Final residual = 9.52056e-09, No Iterations 3
DILUPBiCGStab:  Solving for O2, Initial residual = 0.00271375, Final residual = 2.33657e-09, No Iterations 3
DILUPBiCGStab:  Solving for H2O, Initial residual = 0.00271373, Final residual = 2.33656e-09, No Iterations 3
DILUPBiCGStab:  Solving for CH4, Initial residual = 0, Final residual = 0, No Iterations 0
DILUPBiCGStab:  Solving for CO2, Initial residual = 0.00271373, Final residual = 2.33656e-09, No Iterations 3
DILUPBiCGStab:  Solving for h, Initial residual = 0.00310881, Final residual = 2.32535e-09, No Iterations 3
min/max(T) = 299.997, 1044.98
GAMGPCG:  Solving for p_rgh, Initial residual = 0.0217019, Final residual = 5.77635e-07, No Iterations 4
diagonal:  Solving for rho, Initial residual = 0, Final residual = 0, No Iterations 0
time step continuity errors : sum local = 3.36599e-08, global = 5.58917e-09, cumulative = -2.78046e-07
GAMGPCG:  Solving for p_rgh, Initial residual = 0.002558, Final residual = 8.38693e-07, No Iterations 3
diagonal:  Solving for rho, Initial residual = 0, Final residual = 0, No Iterations 0
time step continuity errors : sum local = 4.7476e-08, global = -3.67059e-10, cumulative = -2.78413e-07
DILUPBiCGStab:  Solving for omega, Initial residual = 0.000107773, Final residual = 1.89391e-09, No Iterations 2
DILUPBiCGStab:  Solving for k, Initial residual = 0.00505886, Final residual = 1.74061e-09, No Iterations 3

ExecutionTime = 3.41 s  ClockTime = 3 s

    Overall     = 0.00152282, 0.01
Time = 276

diagonal:  Solving for rho, Initial residual = 0, Final residual = 0, No Iterations 0

Execution time for mesh.update() = 0 s

DILUPBiCGStab:  Solving for Ux, Initial residual = 0.00508711, Final residual = 5.05673e-09, No Iterations 3
DILUPBiCGStab:  Solving for Uy, Initial residual = 0.00757512, Final residual = 8.37161e-09, No Iterations 3
DILUPBiCGStab:  Solving for O2, Initial residual = 0.00272558, Final residual = 2.48345e-09, No Iterations 3
DILUPBiCGStab:  Solving for H2O, Initial residual = 0.00272557, Final residual = 2.48344e-09, No Iterations 3
DILUPBiCGStab:  Solving for CH4, Initial residual = 0, Final residual = 0, No Iterations 0
DILUPBiCGStab:  Solving for CO2, Initial residual = 0.00272557, Final residual = 2.48344e-09, No Iterations 3
DILUPBiCGStab:  Solving for h, Initial residual = 0.00313634, Final residual = 2.37306e-09, No Iterations 3
min/max(T) = 299.993, 1044.98
GAMGPCG:  Solving for p_rgh, Initial residual = 0.0222429, Final residual = 5.76177e-07, No Iterations 4
diagonal:  Solving for rho, Initial residual = 0, Final residual = 0, No Iterations 0
time step continuity errors : sum local = 3.36851e-08, global = 3.97078e-09, cumulative = -2.74442e-07
GAMGPCG:  Solving for p_rgh, Initial residual = 0.00258087, Final residual = 9.26279e-07, No Iterations 3
diagonal:  Solving for rho, Initial residual = 0, Final residual = 0, No Iterations 0
time step continuity errors : sum local = 5.23051e-08, global = 3.30868e-09, cumulative = -2.71134e-07
DILUPBiCGStab:  Solving for omega, Initial residual = 0.000108681, Final residual = 1.91888e-09, No Iterations 2
DILUPBiCGStab:  Solving for k, Initial residual = 0.00506507, Final residual = 1.4039e-09, No Iterations 3

ExecutionTime = 3.53 s  ClockTime = 3 s

    Overall     = 0.00152751, 0.01
Time = 277

diagonal:  Solving for rho, Initial residual = 0, Final residual = 0, No Iterations 0

Execution time for mesh.update() = 0 s

DILUPBiCGStab:  Solving for Ux, Initial residual = 0.00509597, Final residual = 4.98636e-09, No Iterations 3
DILUPBiCGStab:  Solving for Uy, Initial residual = 0.00762145, Final residual = 7.82221e-09, No Iterations 3
DILUPBiCGStab:  Solving for O2, Initial residual = 0.0027196, Final residual = 2.74864e-09, No Iterations 3
DILUPBiCGStab:  Solving for H2O, Initial residual = 0.00271959, Final residual = 2.74863e-09, No Iterations 3
DILUPBiCGStab:  Solving for CH4, Initial residual = 0, Final residual = 0, No Iterations 0
DILUPBiCGStab:  Solving for CO2, Initial residual = 0.00271959, Final residual = 2.74863e-09, No Iterations 3
DILUPBiCGStab:  Solving for h, Initial residual = 0.003116, Final residual = 2.55816e-09, No Iterations 3
min/max(T) = 299.985, 1044.98
GAMGPCG:  Solving for p_rgh, Initial residual = 0.0215706, Final residual = 6.22208e-07, No Iterations 4
diagonal:  Solving for rho, Initial residual = 0, Final residual = 0, No Iterations 0
time step continuity errors : sum local = 3.65368e-08, global = 2.81876e-09, cumulative = -2.68315e-07
GAMGPCG:  Solving for p_rgh, Initial residual = 0.00257281, Final residual = 2.13817e-07, No Iterations 4
diagonal:  Solving for rho, Initial residual = 0, Final residual = 0, No Iterations 0
time step continuity errors : sum local = 1.20152e-08, global = -8.46085e-10, cumulative = -2.69161e-07
DILUPBiCGStab:  Solving for omega, Initial residual = 0.000109575, Final residual = 1.94673e-09, No Iterations 2
DILUPBiCGStab:  Solving for k, Initial residual = 0.00507804, Final residual = 6.43919e-09, No Iterations 3

ExecutionTime = 3.64 s  ClockTime = 3 s

    Overall     = 0.00154696, 0.01
Time = 278

diagonal:  Solving for rho, Initial residual = 0, Final residual = 0, No Iterations 0

Execution time for mesh.update() = 0 s

DILUPBiCGStab:  Solving for Ux, Initial residual = 0.00511254, Final residual = 5.16303e-09, No Iterations 3
DILUPBiCGStab:  Solving for Uy, Initial residual = 0.00756303, Final residual = 7.04897e-09, No Iterations 3
DILUPBiCGStab:  Solving for O2, Initial residual = 0.00273392, Final residual = 2.90188e-09, No Iterations 3
DILUPBiCGStab:  Solving for H2O, Initial residual = 0.00273392, Final residual = 2.90187e-09, No Iterations 3
DILUPBiCGStab:  Solving for CH4, Initial residual = 0, Final residual = 0, No Iterations 0
DILUPBiCGStab:  Solving for CO2, Initial residual = 0.00273392, Final residual = 2.90187e-09, No Iterations 3
DILUPBiCGStab:  Solving for h, Initial residual = 0.00314132, Final residual = 2.8562e-09, No Iterations 3
min/max(T) = 299.981, 1044.98
GAMGPCG:  Solving for p_rgh, Initial residual = 0.0225598, Final residual = 6.64225e-07, No Iterations 4
diagonal:  Solving for rho, Initial residual = 0, Final residual = 0, No Iterations 0
time step continuity errors : sum local = 3.90491e-08, global = 1.23759e-09, cumulative = -2.67923e-07
GAMGPCG:  Solving for p_rgh, Initial residual = 0.00256345, Final residual = 9.35426e-07, No Iterations 3
diagonal:  Solving for rho, Initial residual = 0, Final residual = 0, No Iterations 0
time step continuity errors : sum local = 5.30493e-08, global = 2.38411e-09, cumulative = -2.65539e-07
DILUPBiCGStab:  Solving for omega, Initial residual = 0.000107835, Final residual = 1.94327e-09, No Iterations 2
DILUPBiCGStab:  Solving for k, Initial residual = 0.00509305, Final residual = 7.01408e-09, No Iterations 3

ExecutionTime = 3.76 s  ClockTime = 3 s

    Overall     = 0.00155239, 0.01
Time = 279

diagonal:  Solving for rho, Initial residual = 0, Final residual = 0, No Iterations 0

Execution time for mesh.update() = 0 s

DILUPBiCGStab:  Solving for Ux, Initial residual = 0.00513346, Final residual = 5.24871e-09, No Iterations 3
DILUPBiCGStab:  Solving for Uy, Initial residual = 0.00761804, Final residual = 6.75904e-09, No Iterations 3
DILUPBiCGStab:  Solving for O2, Initial residual = 0.00272438, Final residual = 3.21387e-09, No Iterations 3
DILUPBiCGStab:  Solving for H2O, Initial residual = 0.00272438, Final residual = 3.21387e-09, No Iterations 3
DILUPBiCGStab:  Solving for CH4, Initial residual = 0, Final residual = 0, No Iterations 0
DILUPBiCGStab:  Solving for CO2, Initial residual = 0.00272438, Final residual = 3.21387e-09, No Iterations 3
DILUPBiCGStab:  Solving for h, Initial residual = 0.00312985, Final residual = 3.15343e-09, No Iterations 3
min/max(T) = 299.969, 1044.98
GAMGPCG:  Solving for p_rgh, Initial residual = 0.0222105, Final residual = 6.88102e-07, No Iterations 4
diagonal:  Solving for rho, Initial residual = 0, Final residual = 0, No Iterations 0
time step continuity errors : sum local = 4.05045e-08, global = -9.41853e-10, cumulative = -2.66481e-07
GAMGPCG:  Solving for p_rgh, Initial residual = 0.00267133, Final residual = 7.91516e-07, No Iterations 3
diagonal:  Solving for rho, Initial residual = 0, Final residual = 0, No Iterations 0
time step continuity errors : sum local = 4.54362e-08, global = -9.33889e-10, cumulative = -2.67415e-07
DILUPBiCGStab:  Solving for omega, Initial residual = 0.000108537, Final residual = 1.92467e-09, No Iterations 2
DILUPBiCGStab:  Solving for k, Initial residual = 0.00510329, Final residual = 4.58323e-09, No Iterations 3

ExecutionTime = 3.88 s  ClockTime = 3 s

    Overall     = 0.00157356, 0.01
Time = 280

diagonal:  Solving for rho, Initial residual = 0, Final residual = 0, No Iterations 0

Execution time for mesh.update() = 0 s

DILUPBiCGStab:  Solving for Ux, Initial residual = 0.00514467, Final residual = 5.11294e-09, No Iterations 3
DILUPBiCGStab:  Solving for Uy, Initial residual = 0.00758709, Final residual = 6.81128e-09, No Iterations 3
GAMGPCG:  Solving for G, Initial residual = 0.180456, Final residual = 7.07174e-05, No Iterations 6
DILUPBiCGStab:  Solving for O2, Initial residual = 0.00273125, Final residual = 3.44877e-09, No Iterations 3
DILUPBiCGStab:  Solving for H2O, Initial residual = 0.00273126, Final residual = 3.4488e-09, No Iterations 3
DILUPBiCGStab:  Solving for CH4, Initial residual = 0, Final residual = 0, No Iterations 0
DILUPBiCGStab:  Solving for CO2, Initial residual = 0.00273126, Final residual = 3.4488e-09, No Iterations 3
DILUPBiCGStab:  Solving for h, Initial residual = 0.00314504, Final residual = 3.40874e-09, No Iterations 3
min/max(T) = 299.967, 1044.98
GAMGPCG:  Solving for p_rgh, Initial residual = 0.0225225, Final residual = 5.99661e-07, No Iterations 4
diagonal:  Solving for rho, Initial residual = 0, Final residual = 0, No Iterations 0
time step continuity errors : sum local = 3.56756e-08, global = -6.92554e-10, cumulative = -2.68107e-07
GAMGPCG:  Solving for p_rgh, Initial residual = 0.00261235, Final residual = 9.10401e-07, No Iterations 3
diagonal:  Solving for rho, Initial residual = 0, Final residual = 0, No Iterations 0
time step continuity errors : sum local = 5.12052e-08, global = 8.22274e-10, cumulative = -2.67285e-07
DILUPBiCGStab:  Solving for omega, Initial residual = 0.000108119, Final residual = 2.00001e-09, No Iterations 2
DILUPBiCGStab:  Solving for k, Initial residual = 0.00512186, Final residual = 3.47222e-09, No Iterations 3

ExecutionTime = 4.13 s  ClockTime = 4 s

    Overall     = 0.00158086, 0.01
Time = 281

diagonal:  Solving for rho, Initial residual = 0, Final residual = 0, No Iterations 0

Execution time for mesh.update() = 0 s

DILUPBiCGStab:  Solving for Ux, Initial residual = 0.00516577, Final residual = 5.03171e-09, No Iterations 3
DILUPBiCGStab:  Solving for Uy, Initial residual = 0.00758792, Final residual = 6.65438e-09, No Iterations 3
DILUPBiCGStab:  Solving for O2, Initial residual = 0.00273449, Final residual = 3.24826e-09, No Iterations 3
DILUPBiCGStab:  Solving for H2O, Initial residual = 0.00273451, Final residual = 3.24831e-09, No Iterations 3
DILUPBiCGStab:  Solving for CH4, Initial residual = 0, Final residual = 0, No Iterations 0
DILUPBiCGStab:  Solving for CO2, Initial residual = 0.00273451, Final residual = 3.24831e-09, No Iterations 3
DILUPBiCGStab:  Solving for h, Initial residual = 0.00313968, Final residual = 3.27609e-09, No Iterations 3
min/max(T) = 299.951, 1044.98
GAMGPCG:  Solving for p_rgh, Initial residual = 0.0221609, Final residual = 6.37109e-07, No Iterations 4
diagonal:  Solving for rho, Initial residual = 0, Final residual = 0, No Iterations 0
time step continuity errors : sum local = 3.76561e-08, global = -2.25873e-09, cumulative = -2.69544e-07
GAMGPCG:  Solving for p_rgh, Initial residual = 0.00273153, Final residual = 7.85337e-07, No Iterations 3
diagonal:  Solving for rho, Initial residual = 0, Final residual = 0, No Iterations 0
time step continuity errors : sum local = 4.51407e-08, global = 9.65955e-10, cumulative = -2.68578e-07
DILUPBiCGStab:  Solving for omega, Initial residual = 0.000108841, Final residual = 1.97864e-09, No Iterations 2
DILUPBiCGStab:  Solving for k, Initial residual = 0.00513235, Final residual = 3.48382e-09, No Iterations 3

ExecutionTime = 4.24 s  ClockTime = 4 s

    Overall     = 0.00160303, 0.01
Time = 282

diagonal:  Solving for rho, Initial residual = 0, Final residual = 0, No Iterations 0

Execution time for mesh.update() = 0 s

DILUPBiCGStab:  Solving for Ux, Initial residual = 0.0052099, Final residual = 5.13784e-09, No Iterations 3
DILUPBiCGStab:  Solving for Uy, Initial residual = 0.00758003, Final residual = 7.01721e-09, No Iterations 3
DILUPBiCGStab:  Solving for O2, Initial residual = 0.0027398, Final residual = 3.39668e-09, No Iterations 3
DILUPBiCGStab:  Solving for H2O, Initial residual = 0.00273983, Final residual = 3.39687e-09, No Iterations 3
DILUPBiCGStab:  Solving for CH4, Initial residual = 0, Final residual = 0, No Iterations 0
DILUPBiCGStab:  Solving for CO2, Initial residual = 0.00273983, Final residual = 3.39687e-09, No Iterations 3
DILUPBiCGStab:  Solving for h, Initial residual = 0.00315161, Final residual = 3.53665e-09, No Iterations 3
min/max(T) = 299.95, 1044.98
GAMGPCG:  Solving for p_rgh, Initial residual = 0.0227925, Final residual = 6.43625e-07, No Iterations 4
diagonal:  Solving for rho, Initial residual = 0, Final residual = 0, No Iterations 0
time step continuity errors : sum local = 3.78177e-08, global = -8.47363e-10, cumulative = -2.69425e-07
GAMGPCG:  Solving for p_rgh, Initial residual = 0.00277791, Final residual = 8.07984e-07, No Iterations 3
diagonal:  Solving for rho, Initial residual = 0, Final residual = 0, No Iterations 0
time step continuity errors : sum local = 4.56915e-08, global = -1.29897e-10, cumulative = -2.69555e-07
DILUPBiCGStab:  Solving for omega, Initial residual = 0.000108468, Final residual = 1.92377e-09, No Iterations 2
DILUPBiCGStab:  Solving for k, Initial residual = 0.00516135, Final residual = 3.56098e-09, No Iterations 3

ExecutionTime = 4.35 s  ClockTime = 4 s

    Overall     = 0.00161286, 0.01
Time = 283

diagonal:  Solving for rho, Initial residual = 0, Final residual = 0, No Iterations 0

Execution time for mesh.update() = 0 s

DILUPBiCGStab:  Solving for Ux, Initial residual = 0.00520664, Final residual = 5.32099e-09, No Iterations 3
DILUPBiCGStab:  Solving for Uy, Initial residual = 0.00756004, Final residual = 6.87034e-09, No Iterations 3
DILUPBiCGStab:  Solving for O2, Initial residual = 0.00273577, Final residual = 2.96332e-09, No Iterations 3
DILUPBiCGStab:  Solving for H2O, Initial residual = 0.00273581, Final residual = 2.96351e-09, No Iterations 3
DILUPBiCGStab:  Solving for CH4, Initial residual = 0, Final residual = 0, No Iterations 0
DILUPBiCGStab:  Solving for CO2, Initial residual = 0.00273581, Final residual = 2.96351e-09, No Iterations 3
DILUPBiCGStab:  Solving for h, Initial residual = 0.00315225, Final residual = 3.23031e-09, No Iterations 3
min/max(T) = 299.926, 1044.98
GAMGPCG:  Solving for p_rgh, Initial residual = 0.0226557, Final residual = 8.95845e-07, No Iterations 4
diagonal:  Solving for rho, Initial residual = 0, Final residual = 0, No Iterations 0
time step continuity errors : sum local = 5.23127e-08, global = -2.15353e-09, cumulative = -2.71709e-07
GAMGPCG:  Solving for p_rgh, Initial residual = 0.00267642, Final residual = 1.17933e-07, No Iterations 4
diagonal:  Solving for rho, Initial residual = 0, Final residual = 0, No Iterations 0
time step continuity errors : sum local = 6.788e-09, global = 2.2162e-10, cumulative = -2.71487e-07
DILUPBiCGStab:  Solving for omega, Initial residual = 0.000109001, Final residual = 1.89332e-09, No Iterations 2
DILUPBiCGStab:  Solving for k, Initial residual = 0.0051829, Final residual = 3.57959e-09, No Iterations 3

ExecutionTime = 4.47 s  ClockTime = 4 s

    Overall     = 0.0016365, 0.01
Time = 284

diagonal:  Solving for rho, Initial residual = 0, Final residual = 0, No Iterations 0

Execution time for mesh.update() = 0 s

DILUPBiCGStab:  Solving for Ux, Initial residual = 0.00522095, Final residual = 5.26867e-09, No Iterations 3
DILUPBiCGStab:  Solving for Uy, Initial residual = 0.00753148, Final residual = 6.86813e-09, No Iterations 3
DILUPBiCGStab:  Solving for O2, Initial residual = 0.00273978, Final residual = 3.20707e-09, No Iterations 3
DILUPBiCGStab:  Solving for H2O, Initial residual = 0.00273982, Final residual = 3.20738e-09, No Iterations 3
DILUPBiCGStab:  Solving for CH4, Initial residual = 0, Final residual = 0, No Iterations 0
DILUPBiCGStab:  Solving for CO2, Initial residual = 0.00273982, Final residual = 3.20738e-09, No Iterations 3
DILUPBiCGStab:  Solving for h, Initial residual = 0.00315724, Final residual = 3.74897e-09, No Iterations 3
min/max(T) = 299.929, 1044.98
GAMGPCG:  Solving for p_rgh, Initial residual = 0.0230159, Final residual = 7.64507e-07, No Iterations 4
diagonal:  Solving for rho, Initial residual = 0, Final residual = 0, No Iterations 0
time step continuity errors : sum local = 4.45941e-08, global = 9.64085e-10, cumulative = -2.70523e-07
GAMGPCG:  Solving for p_rgh, Initial residual = 0.00273035, Final residual = 9.00135e-07, No Iterations 3
diagonal:  Solving for rho, Initial residual = 0, Final residual = 0, No Iterations 0
time step continuity errors : sum local = 5.08706e-08, global = 1.08899e-09, cumulative = -2.69434e-07
DILUPBiCGStab:  Solving for omega, Initial residual = 0.000109143, Final residual = 1.80273e-09, No Iterations 2
DILUPBiCGStab:  Solving for k, Initial residual = 0.00522064, Final residual = 5.08351e-09, No Iterations 3

ExecutionTime = 4.58 s  ClockTime = 4 s

    Overall     = 0.00164954, 0.01
Time = 285

diagonal:  Solving for rho, Initial residual = 0, Final residual = 0, No Iterations 0

Execution time for mesh.update() = 0 s

DILUPBiCGStab:  Solving for Ux, Initial residual = 0.00522679, Final residual = 5.35013e-09, No Iterations 3
DILUPBiCGStab:  Solving for Uy, Initial residual = 0.0074977, Final residual = 7.07696e-09, No Iterations 3
DILUPBiCGStab:  Solving for O2, Initial residual = 0.00273246, Final residual = 2.79716e-09, No Iterations 3
DILUPBiCGStab:  Solving for H2O, Initial residual = 0.0027325, Final residual = 2.79733e-09, No Iterations 3
DILUPBiCGStab:  Solving for CH4, Initial residual = 0, Final residual = 0, No Iterations 0
DILUPBiCGStab:  Solving for CO2, Initial residual = 0.0027325, Final residual = 2.79734e-09, No Iterations 3
DILUPBiCGStab:  Solving for h, Initial residual = 0.00315162, Final residual = 3.36551e-09, No Iterations 3
min/max(T) = 299.894, 1044.98
GAMGPCG:  Solving for p_rgh, Initial residual = 0.0218142, Final residual = 8.19211e-07, No Iterations 4
diagonal:  Solving for rho, Initial residual = 0, Final residual = 0, No Iterations 0
time step continuity errors : sum local = 4.75171e-08, global = -1.00726e-09, cumulative = -2.70441e-07
GAMGPCG:  Solving for p_rgh, Initial residual = 0.00276319, Final residual = 8.56539e-07, No Iterations 3
diagonal:  Solving for rho, Initial residual = 0, Final residual = 0, No Iterations 0
time step continuity errors : sum local = 4.87745e-08, global = 1.19516e-09, cumulative = -2.69246e-07
DILUPBiCGStab:  Solving for omega, Initial residual = 0.000109486, Final residual = 1.74459e-09, No Iterations 2
DILUPBiCGStab:  Solving for k, Initial residual = 0.00523893, Final residual = 9.44362e-10, No Iterations 3

ExecutionTime = 4.69 s  ClockTime = 4 s

    Overall     = 0.00167392, 0.01
Time = 286

diagonal:  Solving for rho, Initial residual = 0, Final residual = 0, No Iterations 0

Execution time for mesh.update() = 0.01 s

DILUPBiCGStab:  Solving for Ux, Initial residual = 0.00519503, Final residual = 5.26073e-09, No Iterations 3
DILUPBiCGStab:  Solving for Uy, Initial residual = 0.00744335, Final residual = 6.6466e-09, No Iterations 3
DILUPBiCGStab:  Solving for O2, Initial residual = 0.00273199, Final residual = 3.95252e-09, No Iterations 3
DILUPBiCGStab:  Solving for H2O, Initial residual = 0.00273204, Final residual = 3.95288e-09, No Iterations 3
DILUPBiCGStab:  Solving for CH4, Initial residual = 0, Final residual = 0, No Iterations 0
DILUPBiCGStab:  Solving for CO2, Initial residual = 0.00273204, Final residual = 3.95288e-09, No Iterations 3
DILUPBiCGStab:  Solving for h, Initial residual = 0.00315562, Final residual = 3.82428e-09, No Iterations 3
min/max(T) = 299.901, 1044.98
GAMGPCG:  Solving for p_rgh, Initial residual = 0.0224313, Final residual = 7.70326e-07, No Iterations 4
diagonal:  Solving for rho, Initial residual = 0, Final residual = 0, No Iterations 0
time step continuity errors : sum local = 4.4729e-08, global = 4.54115e-10, cumulative = -2.68792e-07
GAMGPCG:  Solving for p_rgh, Initial residual = 0.00280596, Final residual = 7.33735e-07, No Iterations 3
diagonal:  Solving for rho, Initial residual = 0, Final residual = 0, No Iterations 0
time step continuity errors : sum local = 4.2172e-08, global = 1.27563e-09, cumulative = -2.67516e-07
DILUPBiCGStab:  Solving for omega, Initial residual = 0.000110668, Final residual = 1.63895e-09, No Iterations 2
DILUPBiCGStab:  Solving for k, Initial residual = 0.00528019, Final residual = 2.17776e-09, No Iterations 3

ExecutionTime = 4.81 s  ClockTime = 4 s

    Overall     = 0.00169044, 0.01
Time = 287

diagonal:  Solving for rho, Initial residual = 0, Final residual = 0, No Iterations 0

Execution time for mesh.update() = 0 s

DILUPBiCGStab:  Solving for Ux, Initial residual = 0.00521861, Final residual = 5.24809e-09, No Iterations 3
DILUPBiCGStab:  Solving for Uy, Initial residual = 0.00742941, Final residual = 6.58605e-09, No Iterations 3
DILUPBiCGStab:  Solving for O2, Initial residual = 0.00272154, Final residual = 3.25365e-09, No Iterations 3
DILUPBiCGStab:  Solving for H2O, Initial residual = 0.00272161, Final residual = 3.25388e-09, No Iterations 3
DILUPBiCGStab:  Solving for CH4, Initial residual = 0, Final residual = 0, No Iterations 0
DILUPBiCGStab:  Solving for CO2, Initial residual = 0.00272161, Final residual = 3.25388e-09, No Iterations 3
DILUPBiCGStab:  Solving for h, Initial residual = 0.00314286, Final residual = 3.17261e-09, No Iterations 3
min/max(T) = 299.831, 1044.98
GAMGPCG:  Solving for p_rgh, Initial residual = 0.0222233, Final residual = 8.11507e-07, No Iterations 4
diagonal:  Solving for rho, Initial residual = 0, Final residual = 0, No Iterations 0
time step continuity errors : sum local = 4.71893e-08, global = -7.42351e-10, cumulative = -2.68259e-07
GAMGPCG:  Solving for p_rgh, Initial residual = 0.00272251, Final residual = 8.58692e-07, No Iterations 3
diagonal:  Solving for rho, Initial residual = 0, Final residual = 0, No Iterations 0
time step continuity errors : sum local = 4.87664e-08, global = 2.08956e-09, cumulative = -2.66169e-07
DILUPBiCGStab:  Solving for omega, Initial residual = 0.000110006, Final residual = 1.58558e-09, No Iterations 2
DILUPBiCGStab:  Solving for k, Initial residual = 0.00530754, Final residual = 9.70959e-09, No Iterations 3

ExecutionTime = 4.92 s  ClockTime = 5 s

    Overall     = 0.00171588, 0.01
Time = 288

diagonal:  Solving for rho, Initial residual = 0, Final residual = 0, No Iterations 0

Execution time for mesh.update() = 0 s

DILUPBiCGStab:  Solving for Ux, Initial residual = 0.00520032, Final residual = 4.78557e-09, No Iterations 3
DILUPBiCGStab:  Solving for Uy, Initial residual = 0.00740472, Final residual = 8.74094e-09, No Iterations 3
DILUPBiCGStab:  Solving for O2, Initial residual = 0.00271793, Final residual = 2.70791e-09, No Iterations 3
DILUPBiCGStab:  Solving for H2O, Initial residual = 0.00271801, Final residual = 2.70823e-09, No Iterations 3
DILUPBiCGStab:  Solving for CH4, Initial residual = 0, Final residual = 0, No Iterations 0
DILUPBiCGStab:  Solving for CO2, Initial residual = 0.00271801, Final residual = 2.70823e-09, No Iterations 3
DILUPBiCGStab:  Solving for h, Initial residual = 0.00314434, Final residual = 2.87569e-09, No Iterations 3
min/max(T) = 299.764, 1044.98
GAMGPCG:  Solving for p_rgh, Initial residual = 0.0220493, Final residual = 7.14293e-07, No Iterations 4
diagonal:  Solving for rho, Initial residual = 0, Final residual = 0, No Iterations 0
time step continuity errors : sum local = 4.13963e-08, global = -7.73168e-10, cumulative = -2.66942e-07
GAMGPCG:  Solving for p_rgh, Initial residual = 0.00283292, Final residual = 8.49362e-07, No Iterations 3
diagonal:  Solving for rho, Initial residual = 0, Final residual = 0, No Iterations 0
time step continuity errors : sum local = 4.85282e-08, global = 3.79886e-09, cumulative = -2.63144e-07
DILUPBiCGStab:  Solving for omega, Initial residual = 0.000109818, Final residual = 1.52644e-09, No Iterations 2
DILUPBiCGStab:  Solving for k, Initial residual = 0.00533854, Final residual = 8.33384e-09, No Iterations 3

ExecutionTime = 5.04 s  ClockTime = 5 s

    Overall     = 0.0017354, 0.01
Time = 289

diagonal:  Solving for rho, Initial residual = 0, Final residual = 0, No Iterations 0

Execution time for mesh.update() = 0 s

DILUPBiCGStab:  Solving for Ux, Initial residual = 0.00518701, Final residual = 4.5744e-09, No Iterations 3
DILUPBiCGStab:  Solving for Uy, Initial residual = 0.00736999, Final residual = 7.99954e-09, No Iterations 3
DILUPBiCGStab:  Solving for O2, Initial residual = 0.00271914, Final residual = 2.31432e-09, No Iterations 3
DILUPBiCGStab:  Solving for H2O, Initial residual = 0.00271923, Final residual = 2.3145e-09, No Iterations 3
DILUPBiCGStab:  Solving for CH4, Initial residual = 0, Final residual = 0, No Iterations 0
DILUPBiCGStab:  Solving for CO2, Initial residual = 0.00271923, Final residual = 2.3145e-09, No Iterations 3
DILUPBiCGStab:  Solving for h, Initial residual = 0.00314867, Final residual = 2.38122e-09, No Iterations 3
min/max(T) = 299.718, 1044.98
GAMGPCG:  Solving for p_rgh, Initial residual = 0.0222124, Final residual = 8.38916e-07, No Iterations 4
diagonal:  Solving for rho, Initial residual = 0, Final residual = 0, No Iterations 0
time step continuity errors : sum local = 4.88875e-08, global = -1.06692e-09, cumulative = -2.6421e-07
GAMGPCG:  Solving for p_rgh, Initial residual = 0.00281333, Final residual = 7.55346e-07, No Iterations 3
diagonal:  Solving for rho, Initial residual = 0, Final residual = 0, No Iterations 0
time step continuity errors : sum local = 4.38608e-08, global = 1.24711e-09, cumulative = -2.62963e-07
DILUPBiCGStab:  Solving for omega, Initial residual = 0.000110285, Final residual = 1.52092e-09, No Iterations 2
DILUPBiCGStab:  Solving for k, Initial residual = 0.00536327, Final residual = 6.58666e-09, No Iterations 3

ExecutionTime = 5.15 s  ClockTime = 5 s

    Overall     = 0.00176205, 0.01
Time = 290

diagonal:  Solving for rho, Initial residual = 0, Final residual = 0, No Iterations 0

Execution time for mesh.update() = 0 s

DILUPBiCGStab:  Solving for Ux, Initial residual = 0.00520348, Final residual = 4.2694e-09, No Iterations 3
DILUPBiCGStab:  Solving for Uy, Initial residual = 0.00737888, Final residual = 8.43625e-09, No Iterations 3
GAMGPCG:  Solving for G, Initial residual = 0.216609, Final residual = 6.30348e-05, No Iterations 6
DILUPBiCGStab:  Solving for O2, Initial residual = 0.00270784, Final residual = 2.35822e-09, No Iterations 3
DILUPBiCGStab:  Solving for H2O, Initial residual = 0.00270794, Final residual = 2.35862e-09, No Iterations 3
DILUPBiCGStab:  Solving for CH4, Initial residual = 0, Final residual = 0, No Iterations 0
DILUPBiCGStab:  Solving for CO2, Initial residual = 0.00270794, Final residual = 2.35862e-09, No Iterations 3
DILUPBiCGStab:  Solving for h, Initial residual = 0.00314333, Final residual = 2.44021e-09, No Iterations 3
min/max(T) = 299.685, 1044.98
GAMGPCG:  Solving for p_rgh, Initial residual = 0.0218348, Final residual = 6.19735e-07, No Iterations 4
diagonal:  Solving for rho, Initial residual = 0, Final residual = 0, No Iterations 0
time step continuity errors : sum local = 3.59731e-08, global = -2.47976e-09, cumulative = -2.65443e-07
GAMGPCG:  Solving for p_rgh, Initial residual = 0.00292582, Final residual = 8.55154e-07, No Iterations 3
diagonal:  Solving for rho, Initial residual = 0, Final residual = 0, No Iterations 0
time step continuity errors : sum local = 4.86468e-08, global = 2.20181e-09, cumulative = -2.63241e-07
DILUPBiCGStab:  Solving for omega, Initial residual = 0.000109323, Final residual = 1.53494e-09, No Iterations 2
DILUPBiCGStab:  Solving for k, Initial residual = 0.00540037, Final residual = 6.12466e-09, No Iterations 3

ExecutionTime = 5.39 s  ClockTime = 5 s

    Overall     = 0.00178288, 0.01
Time = 291

diagonal:  Solving for rho, Initial residual = 0, Final residual = 0, No Iterations 0

Execution time for mesh.update() = 0 s

DILUPBiCGStab:  Solving for Ux, Initial residual = 0.00519979, Final residual = 4.43966e-09, No Iterations 3
DILUPBiCGStab:  Solving for Uy, Initial residual = 0.00729018, Final residual = 7.74917e-09, No Iterations 3
DILUPBiCGStab:  Solving for O2, Initial residual = 0.00271908, Final residual = 2.34328e-09, No Iterations 3
DILUPBiCGStab:  Solving for H2O, Initial residual = 0.0027192, Final residual = 2.34343e-09, No Iterations 3
DILUPBiCGStab:  Solving for CH4, Initial residual = 0, Final residual = 0, No Iterations 0
DILUPBiCGStab:  Solving for CO2, Initial residual = 0.0027192, Final residual = 2.34343e-09, No Iterations 3
DILUPBiCGStab:  Solving for h, Initial residual = 0.00315889, Final residual = 2.3857e-09, No Iterations 3
min/max(T) = 299.685, 1044.98
GAMGPCG:  Solving for p_rgh, Initial residual = 0.0219257, Final residual = 6.30883e-07, No Iterations 4
diagonal:  Solving for rho, Initial residual = 0, Final residual = 0, No Iterations 0
time step continuity errors : sum local = 3.65748e-08, global = -2.82937e-09, cumulative = -2.66071e-07
GAMGPCG:  Solving for p_rgh, Initial residual = 0.00287556, Final residual = 8.35544e-07, No Iterations 3
diagonal:  Solving for rho, Initial residual = 0, Final residual = 0, No Iterations 0
time step continuity errors : sum local = 4.76654e-08, global = 5.02939e-09, cumulative = -2.61041e-07
DILUPBiCGStab:  Solving for omega, Initial residual = 0.000110128, Final residual = 1.45697e-09, No Iterations 2
DILUPBiCGStab:  Solving for k, Initial residual = 0.00542272, Final residual = 8.78632e-09, No Iterations 3

ExecutionTime = 5.51 s  ClockTime = 5 s

    Overall     = 0.00178025, 0.01
Time = 292

diagonal:  Solving for rho, Initial residual = 0, Final residual = 0, No Iterations 0

Execution time for mesh.update() = 0 s

DILUPBiCGStab:  Solving for Ux, Initial residual = 0.00522682, Final residual = 4.74611e-09, No Iterations 3
DILUPBiCGStab:  Solving for Uy, Initial residual = 0.0072893, Final residual = 7.11858e-09, No Iterations 3
DILUPBiCGStab:  Solving for O2, Initial residual = 0.00270849, Final residual = 2.43353e-09, No Iterations 3
DILUPBiCGStab:  Solving for H2O, Initial residual = 0.00270861, Final residual = 2.43366e-09, No Iterations 3
DILUPBiCGStab:  Solving for CH4, Initial residual = 0, Final residual = 0, No Iterations 0
DILUPBiCGStab:  Solving for CO2, Initial residual = 0.00270861, Final residual = 2.43366e-09, No Iterations 3
DILUPBiCGStab:  Solving for h, Initial residual = 0.00315585, Final residual = 2.52405e-09, No Iterations 3
min/max(T) = 299.711, 1044.98
GAMGPCG:  Solving for p_rgh, Initial residual = 0.0213191, Final residual = 5.04872e-07, No Iterations 4
diagonal:  Solving for rho, Initial residual = 0, Final residual = 0, No Iterations 0
time step continuity errors : sum local = 2.88672e-08, global = -2.75436e-09, cumulative = -2.63796e-07
GAMGPCG:  Solving for p_rgh, Initial residual = 0.00300351, Final residual = 8.88142e-07, No Iterations 3
diagonal:  Solving for rho, Initial residual = 0, Final residual = 0, No Iterations 0
time step continuity errors : sum local = 4.95856e-08, global = 6.37815e-09, cumulative = -2.57417e-07
DILUPBiCGStab:  Solving for omega, Initial residual = 0.000110557, Final residual = 1.4724e-09, No Iterations 2
DILUPBiCGStab:  Solving for k, Initial residual = 0.00545212, Final residual = 8.2336e-10, No Iterations 3

ExecutionTime = 5.62 s  ClockTime = 5 s

    Overall     = 0.00173723, 0.01
Time = 293

[...]

Execution time for mesh.update() = 0 s

DILUPBiCGStab:  Solving for Ux, Initial residual = 0.00513986, Final residual = 8.80337e-10, No Iterations 3
DILUPBiCGStab:  Solving for Uy, Initial residual = 0.00451317, Final residual = 7.4544e-09, No Iterations 3
GAMGPCG:  Solving for G, Initial residual = 0.158793, Final residual = 9.95881e-05, No Iterations 4
DILUPBiCGStab:  Solving for O2, Initial residual = 0.00202051, Final residual = 8.21979e-09, No Iterations 3
DILUPBiCGStab:  Solving for H2O, Initial residual = 0.00202051, Final residual = 8.21978e-09, No Iterations 3
DILUPBiCGStab:  Solving for CH4, Initial residual = 0, Final residual = 0, No Iterations 0
DILUPBiCGStab:  Solving for CO2, Initial residual = 0.00202051, Final residual = 8.21978e-09, No Iterations 3
DILUPBiCGStab:  Solving for h, Initial residual = 0.00226701, Final residual = 1.02066e-09, No Iterations 3
min/max(T) = 300, 1044.98
GAMGPCG:  Solving for p_rgh, Initial residual = 0.0163821, Final residual = 2.34826e-07, No Iterations 5
diagonal:  Solving for rho, Initial residual = 0, Final residual = 0, No Iterations 0
time step continuity errors : sum local = 9.58868e-09, global = 8.15605e-11, cumulative = 2.24637e-06
GAMGPCG:  Solving for p_rgh, Initial residual = 0.0028351, Final residual = 5.31046e-07, No Iterations 4
diagonal:  Solving for rho, Initial residual = 0, Final residual = 0, No Iterations 0
time step continuity errors : sum local = 1.98597e-08, global = 3.68597e-09, cumulative = 2.25006e-06
DILUPBiCGStab:  Solving for omega, Initial residual = 9.94291e-05, Final residual = 1.67211e-09, No Iterations 2
DILUPBiCGStab:  Solving for k, Initial residual = 0.00425255, Final residual = 6.12255e-09, No Iterations 3

ExecutionTime = 293.29 s  ClockTime = 293 s

    Overall     = 0.0012313, 0.01
Time = 2491

diagonal:  Solving for rho, Initial residual = 0, Final residual = 0, No Iterations 0

Execution time for mesh.update() = 0 s

DILUPBiCGStab:  Solving for Ux, Initial residual = 0.00514419, Final residual = 8.15393e-10, No Iterations 3
DILUPBiCGStab:  Solving for Uy, Initial residual = 0.00453056, Final residual = 8.47053e-09, No Iterations 3
DILUPBiCGStab:  Solving for O2, Initial residual = 0.00203634, Final residual = 2.40911e-09, No Iterations 3
DILUPBiCGStab:  Solving for H2O, Initial residual = 0.00203634, Final residual = 2.40911e-09, No Iterations 3
DILUPBiCGStab:  Solving for CH4, Initial residual = 0, Final residual = 0, No Iterations 0
DILUPBiCGStab:  Solving for CO2, Initial residual = 0.00203634, Final residual = 2.40911e-09, No Iterations 3
DILUPBiCGStab:  Solving for h, Initial residual = 0.00228661, Final residual = 2.60759e-09, No Iterations 3
min/max(T) = 300, 1044.98
GAMGPCG:  Solving for p_rgh, Initial residual = 0.0163606, Final residual = 2.15926e-07, No Iterations 5
diagonal:  Solving for rho, Initial residual = 0, Final residual = 0, No Iterations 0
time step continuity errors : sum local = 8.96688e-09, global = -9.26862e-12, cumulative = 2.25005e-06
GAMGPCG:  Solving for p_rgh, Initial residual = 0.00283576, Final residual = 5.49032e-07, No Iterations 4
diagonal:  Solving for rho, Initial residual = 0, Final residual = 0, No Iterations 0
time step continuity errors : sum local = 2.06925e-08, global = 4.16999e-09, cumulative = 2.25422e-06
DILUPBiCGStab:  Solving for omega, Initial residual = 0.000100192, Final residual = 1.6809e-09, No Iterations 2
DILUPBiCGStab:  Solving for k, Initial residual = 0.00427123, Final residual = 2.83292e-09, No Iterations 3

ExecutionTime = 293.41 s  ClockTime = 293 s

    Overall     = 0.0012338, 0.01
Time = 2492

diagonal:  Solving for rho, Initial residual = 0, Final residual = 0, No Iterations 0

Execution time for mesh.update() = 0 s

DILUPBiCGStab:  Solving for Ux, Initial residual = 0.00514089, Final residual = 8.2893e-09, No Iterations 3
DILUPBiCGStab:  Solving for Uy, Initial residual = 0.00455875, Final residual = 9.17282e-09, No Iterations 3
DILUPBiCGStab:  Solving for O2, Initial residual = 0.00204126, Final residual = 2.86911e-09, No Iterations 3
DILUPBiCGStab:  Solving for H2O, Initial residual = 0.00204126, Final residual = 2.86911e-09, No Iterations 3
DILUPBiCGStab:  Solving for CH4, Initial residual = 0, Final residual = 0, No Iterations 0
DILUPBiCGStab:  Solving for CO2, Initial residual = 0.00204126, Final residual = 2.86911e-09, No Iterations 3
DILUPBiCGStab:  Solving for h, Initial residual = 0.00228753, Final residual = 2.87054e-09, No Iterations 3
min/max(T) = 300, 1044.98
GAMGPCG:  Solving for p_rgh, Initial residual = 0.0167434, Final residual = 2.09704e-07, No Iterations 5
diagonal:  Solving for rho, Initial residual = 0, Final residual = 0, No Iterations 0
time step continuity errors : sum local = 8.71044e-09, global = 4.59283e-10, cumulative = 2.25468e-06
GAMGPCG:  Solving for p_rgh, Initial residual = 0.0029586, Final residual = 5.54004e-07, No Iterations 4
diagonal:  Solving for rho, Initial residual = 0, Final residual = 0, No Iterations 0
time step continuity errors : sum local = 2.11677e-08, global = 4.45199e-09, cumulative = 2.25913e-06
DILUPBiCGStab:  Solving for omega, Initial residual = 0.000101521, Final residual = 1.59867e-09, No Iterations 2
DILUPBiCGStab:  Solving for k, Initial residual = 0.00426406, Final residual = 4.01203e-09, No Iterations 3

ExecutionTime = 293.53 s  ClockTime = 293 s

    Overall     = 0.00123458, 0.01
Time = 2493

diagonal:  Solving for rho, Initial residual = 0, Final residual = 0, No Iterations 0

Execution time for mesh.update() = 0 s

DILUPBiCGStab:  Solving for Ux, Initial residual = 0.00522946, Final residual = 6.94398e-09, No Iterations 3
DILUPBiCGStab:  Solving for Uy, Initial residual = 0.004644, Final residual = 9.04189e-09, No Iterations 3
DILUPBiCGStab:  Solving for O2, Initial residual = 0.00205017, Final residual = 2.90399e-09, No Iterations 3
DILUPBiCGStab:  Solving for H2O, Initial residual = 0.00205017, Final residual = 2.90399e-09, No Iterations 3
DILUPBiCGStab:  Solving for CH4, Initial residual = 0, Final residual = 0, No Iterations 0
DILUPBiCGStab:  Solving for CO2, Initial residual = 0.00205017, Final residual = 2.90399e-09, No Iterations 3
DILUPBiCGStab:  Solving for h, Initial residual = 0.00229855, Final residual = 2.94187e-09, No Iterations 3
min/max(T) = 300, 1044.98
GAMGPCG:  Solving for p_rgh, Initial residual = 0.016437, Final residual = 2.07898e-07, No Iterations 5
diagonal:  Solving for rho, Initial residual = 0, Final residual = 0, No Iterations 0
time step continuity errors : sum local = 8.75852e-09, global = 3.94029e-10, cumulative = 2.25952e-06
GAMGPCG:  Solving for p_rgh, Initial residual = 0.00292744, Final residual = 6.229e-07, No Iterations 4
diagonal:  Solving for rho, Initial residual = 0, Final residual = 0, No Iterations 0
time step continuity errors : sum local = 2.36713e-08, global = 3.65701e-09, cumulative = 2.26318e-06
DILUPBiCGStab:  Solving for omega, Initial residual = 0.000101995, Final residual = 1.57366e-09, No Iterations 2
DILUPBiCGStab:  Solving for k, Initial residual = 0.00425004, Final residual = 3.59866e-09, No Iterations 3

ExecutionTime = 293.65 s  ClockTime = 293 s

    Overall     = 0.00123769, 0.01
Time = 2494

diagonal:  Solving for rho, Initial residual = 0, Final residual = 0, No Iterations 0

Execution time for mesh.update() = 0 s

DILUPBiCGStab:  Solving for Ux, Initial residual = 0.00521113, Final residual = 6.0273e-09, No Iterations 3
DILUPBiCGStab:  Solving for Uy, Initial residual = 0.00462029, Final residual = 9.51342e-09, No Iterations 3
DILUPBiCGStab:  Solving for O2, Initial residual = 0.00205168, Final residual = 2.69338e-09, No Iterations 3
DILUPBiCGStab:  Solving for H2O, Initial residual = 0.00205168, Final residual = 2.69338e-09, No Iterations 3
DILUPBiCGStab:  Solving for CH4, Initial residual = 0, Final residual = 0, No Iterations 0
DILUPBiCGStab:  Solving for CO2, Initial residual = 0.00205168, Final residual = 2.69338e-09, No Iterations 3
DILUPBiCGStab:  Solving for h, Initial residual = 0.00229522, Final residual = 2.83993e-09, No Iterations 3
min/max(T) = 300, 1044.98
GAMGPCG:  Solving for p_rgh, Initial residual = 0.016181, Final residual = 1.98283e-07, No Iterations 5
diagonal:  Solving for rho, Initial residual = 0, Final residual = 0, No Iterations 0
time step continuity errors : sum local = 8.3517e-09, global = 4.96167e-10, cumulative = 2.26368e-06
GAMGPCG:  Solving for p_rgh, Initial residual = 0.00291455, Final residual = 6.03486e-07, No Iterations 4
diagonal:  Solving for rho, Initial residual = 0, Final residual = 0, No Iterations 0
time step continuity errors : sum local = 2.31332e-08, global = 3.38724e-09, cumulative = 2.26706e-06
DILUPBiCGStab:  Solving for omega, Initial residual = 0.00010184, Final residual = 1.6419e-09, No Iterations 2
DILUPBiCGStab:  Solving for k, Initial residual = 0.00426869, Final residual = 3.24175e-09, No Iterations 3

ExecutionTime = 293.77 s  ClockTime = 293 s

    Overall     = 0.00123817, 0.01
Time = 2495

diagonal:  Solving for rho, Initial residual = 0, Final residual = 0, No Iterations 0

Execution time for mesh.update() = 0 s

DILUPBiCGStab:  Solving for Ux, Initial residual = 0.0052129, Final residual = 6.02111e-09, No Iterations 3
DILUPBiCGStab:  Solving for Uy, Initial residual = 0.00464308, Final residual = 8.70576e-10, No Iterations 3
DILUPBiCGStab:  Solving for O2, Initial residual = 0.00206217, Final residual = 2.64439e-09, No Iterations 3
DILUPBiCGStab:  Solving for H2O, Initial residual = 0.00206217, Final residual = 2.64439e-09, No Iterations 3
DILUPBiCGStab:  Solving for CH4, Initial residual = 0, Final residual = 0, No Iterations 0
DILUPBiCGStab:  Solving for CO2, Initial residual = 0.00206217, Final residual = 2.64439e-09, No Iterations 3
DILUPBiCGStab:  Solving for h, Initial residual = 0.00230698, Final residual = 2.82381e-09, No Iterations 3
min/max(T) = 299.962, 1044.98
GAMGPCG:  Solving for p_rgh, Initial residual = 0.0161128, Final residual = 2.04337e-07, No Iterations 5
diagonal:  Solving for rho, Initial residual = 0, Final residual = 0, No Iterations 0
time step continuity errors : sum local = 8.61785e-09, global = 4.75325e-10, cumulative = 2.26754e-06
GAMGPCG:  Solving for p_rgh, Initial residual = 0.00291888, Final residual = 5.6201e-07, No Iterations 4
diagonal:  Solving for rho, Initial residual = 0, Final residual = 0, No Iterations 0
time step continuity errors : sum local = 2.17862e-08, global = 3.19647e-09, cumulative = 2.27073e-06
DILUPBiCGStab:  Solving for omega, Initial residual = 9.99793e-05, Final residual = 1.61103e-09, No Iterations 2
DILUPBiCGStab:  Solving for k, Initial residual = 0.00427542, Final residual = 2.78219e-09, No Iterations 3

ExecutionTime = 293.88 s  ClockTime = 293 s

    Overall     = 0.00124081, 0.01
Time = 2496

diagonal:  Solving for rho, Initial residual = 0, Final residual = 0, No Iterations 0

Execution time for mesh.update() = 0 s

DILUPBiCGStab:  Solving for Ux, Initial residual = 0.00522471, Final residual = 6.24571e-09, No Iterations 3
DILUPBiCGStab:  Solving for Uy, Initial residual = 0.00465432, Final residual = 8.5216e-10, No Iterations 3
DILUPBiCGStab:  Solving for O2, Initial residual = 0.00206265, Final residual = 2.6598e-09, No Iterations 3
DILUPBiCGStab:  Solving for H2O, Initial residual = 0.00206267, Final residual = 2.6598e-09, No Iterations 3
DILUPBiCGStab:  Solving for CH4, Initial residual = 0, Final residual = 0, No Iterations 0
DILUPBiCGStab:  Solving for CO2, Initial residual = 0.00206267, Final residual = 2.6598e-09, No Iterations 3
DILUPBiCGStab:  Solving for h, Initial residual = 0.0023031, Final residual = 2.79841e-09, No Iterations 3
min/max(T) = 299.911, 1044.98
GAMGPCG:  Solving for p_rgh, Initial residual = 0.0163539, Final residual = 2.22428e-07, No Iterations 5
diagonal:  Solving for rho, Initial residual = 0, Final residual = 0, No Iterations 0
time step continuity errors : sum local = 9.38843e-09, global = 8.07901e-10, cumulative = 2.27154e-06
GAMGPCG:  Solving for p_rgh, Initial residual = 0.00292532, Final residual = 5.20134e-07, No Iterations 4
diagonal:  Solving for rho, Initial residual = 0, Final residual = 0, No Iterations 0
time step continuity errors : sum local = 2.03911e-08, global = 2.97197e-09, cumulative = 2.27451e-06
DILUPBiCGStab:  Solving for omega, Initial residual = 9.87466e-05, Final residual = 1.75282e-09, No Iterations 2
DILUPBiCGStab:  Solving for k, Initial residual = 0.00425872, Final residual = 2.76828e-09, No Iterations 3
bounding k, min: -2.0883e-05 max: 0.0332847 average: 0.00372786

ExecutionTime = 294 s  ClockTime = 294 s

    Overall     = 0.00124024, 0.01
Time = 2497

diagonal:  Solving for rho, Initial residual = 0, Final residual = 0, No Iterations 0

Execution time for mesh.update() = 0 s

DILUPBiCGStab:  Solving for Ux, Initial residual = 0.00522385, Final residual = 6.69821e-09, No Iterations 3
DILUPBiCGStab:  Solving for Uy, Initial residual = 0.004665, Final residual = 9.62745e-09, No Iterations 3
DILUPBiCGStab:  Solving for O2, Initial residual = 0.00207665, Final residual = 2.89855e-09, No Iterations 3
DILUPBiCGStab:  Solving for H2O, Initial residual = 0.00207662, Final residual = 2.89855e-09, No Iterations 3
DILUPBiCGStab:  Solving for CH4, Initial residual = 0, Final residual = 0, No Iterations 0
DILUPBiCGStab:  Solving for CO2, Initial residual = 0.00207662, Final residual = 2.89855e-09, No Iterations 3
DILUPBiCGStab:  Solving for h, Initial residual = 0.00231602, Final residual = 3.00354e-09, No Iterations 3
min/max(T) = 300, 1044.98
GAMGPCG:  Solving for p_rgh, Initial residual = 0.0161607, Final residual = 2.26187e-07, No Iterations 5
diagonal:  Solving for rho, Initial residual = 0, Final residual = 0, No Iterations 0
time step continuity errors : sum local = 9.62425e-09, global = 5.77914e-10, cumulative = 2.27509e-06
GAMGPCG:  Solving for p_rgh, Initial residual = 0.00290093, Final residual = 4.94243e-07, No Iterations 4
diagonal:  Solving for rho, Initial residual = 0, Final residual = 0, No Iterations 0
time step continuity errors : sum local = 1.95956e-08, global = 2.52922e-09, cumulative = 2.27762e-06
DILUPBiCGStab:  Solving for omega, Initial residual = 9.81047e-05, Final residual = 1.81671e-09, No Iterations 2
DILUPBiCGStab:  Solving for k, Initial residual = 0.00425196, Final residual = 3.02391e-09, No Iterations 3

ExecutionTime = 294.12 s  ClockTime = 294 s

    Overall     = 0.00124187, 0.01
Time = 2498

diagonal:  Solving for rho, Initial residual = 0, Final residual = 0, No Iterations 0

Execution time for mesh.update() = 0 s

DILUPBiCGStab:  Solving for Ux, Initial residual = 0.00522207, Final residual = 7.14499e-09, No Iterations 3
DILUPBiCGStab:  Solving for Uy, Initial residual = 0.00468174, Final residual = 9.48275e-09, No Iterations 3
DILUPBiCGStab:  Solving for O2, Initial residual = 0.00207462, Final residual = 3.26362e-09, No Iterations 3
DILUPBiCGStab:  Solving for H2O, Initial residual = 0.00207463, Final residual = 3.26362e-09, No Iterations 3
DILUPBiCGStab:  Solving for CH4, Initial residual = 0, Final residual = 0, No Iterations 0
DILUPBiCGStab:  Solving for CO2, Initial residual = 0.00207463, Final residual = 3.26362e-09, No Iterations 3
DILUPBiCGStab:  Solving for h, Initial residual = 0.00231458, Final residual = 3.41021e-09, No Iterations 3
min/max(T) = 300, 1044.98
GAMGPCG:  Solving for p_rgh, Initial residual = 0.016256, Final residual = 1.90076e-07, No Iterations 5
diagonal:  Solving for rho, Initial residual = 0, Final residual = 0, No Iterations 0
time step continuity errors : sum local = 8.05421e-09, global = 4.16087e-10, cumulative = 2.27804e-06
GAMGPCG:  Solving for p_rgh, Initial residual = 0.00292723, Final residual = 5.02634e-07, No Iterations 4
diagonal:  Solving for rho, Initial residual = 0, Final residual = 0, No Iterations 0
time step continuity errors : sum local = 2.01292e-08, global = 2.05018e-09, cumulative = 2.28009e-06
DILUPBiCGStab:  Solving for omega, Initial residual = 9.81788e-05, Final residual = 1.79763e-09, No Iterations 2
DILUPBiCGStab:  Solving for k, Initial residual = 0.00425137, Final residual = 3.11442e-09, No Iterations 3

ExecutionTime = 294.24 s  ClockTime = 294 s

    Overall     = 0.00124028, 0.01
Time = 2499

diagonal:  Solving for rho, Initial residual = 0, Final residual = 0, No Iterations 0

Execution time for mesh.update() = 0 s

DILUPBiCGStab:  Solving for Ux, Initial residual = 0.00522372, Final residual = 7.90179e-09, No Iterations 3
DILUPBiCGStab:  Solving for Uy, Initial residual = 0.00471347, Final residual = 8.82844e-09, No Iterations 3
DILUPBiCGStab:  Solving for O2, Initial residual = 0.00208861, Final residual = 3.29247e-09, No Iterations 3
DILUPBiCGStab:  Solving for H2O, Initial residual = 0.0020886, Final residual = 3.29247e-09, No Iterations 3
DILUPBiCGStab:  Solving for CH4, Initial residual = 0, Final residual = 0, No Iterations 0
DILUPBiCGStab:  Solving for CO2, Initial residual = 0.0020886, Final residual = 3.29247e-09, No Iterations 3
DILUPBiCGStab:  Solving for h, Initial residual = 0.00233174, Final residual = 3.45951e-09, No Iterations 3
min/max(T) = 300, 1044.98
GAMGPCG:  Solving for p_rgh, Initial residual = 0.0168215, Final residual = 1.18086e-07, No Iterations 5
diagonal:  Solving for rho, Initial residual = 0, Final residual = 0, No Iterations 0
time step continuity errors : sum local = 5.07426e-09, global = 9.28658e-10, cumulative = 2.28102e-06
GAMGPCG:  Solving for p_rgh, Initial residual = 0.00292406, Final residual = 5.22672e-07, No Iterations 4
diagonal:  Solving for rho, Initial residual = 0, Final residual = 0, No Iterations 0
time step continuity errors : sum local = 2.06404e-08, global = 1.50644e-09, cumulative = 2.28252e-06
DILUPBiCGStab:  Solving for omega, Initial residual = 9.88545e-05, Final residual = 1.7665e-09, No Iterations 2
DILUPBiCGStab:  Solving for k, Initial residual = 0.00423716, Final residual = 3.23555e-09, No Iterations 3

ExecutionTime = 294.36 s  ClockTime = 294 s

    Overall     = 0.00124085, 0.01
Time = 2500

diagonal:  Solving for rho, Initial residual = 0, Final residual = 0, No Iterations 0

Execution time for mesh.update() = 0 s

DILUPBiCGStab:  Solving for Ux, Initial residual = 0.00525007, Final residual = 8.22763e-09, No Iterations 3
DILUPBiCGStab:  Solving for Uy, Initial residual = 0.00474819, Final residual = 9.27714e-09, No Iterations 3
GAMGPCG:  Solving for G, Initial residual = 0.174411, Final residual = 7.18898e-05, No Iterations 5
DILUPBiCGStab:  Solving for O2, Initial residual = 0.00209643, Final residual = 3.15398e-09, No Iterations 3
DILUPBiCGStab:  Solving for H2O, Initial residual = 0.00209643, Final residual = 3.15398e-09, No Iterations 3
DILUPBiCGStab:  Solving for CH4, Initial residual = 0, Final residual = 0, No Iterations 0
DILUPBiCGStab:  Solving for CO2, Initial residual = 0.00209643, Final residual = 3.15398e-09, No Iterations 3
DILUPBiCGStab:  Solving for h, Initial residual = 0.00233891, Final residual = 3.41525e-09, No Iterations 3
min/max(T) = 300, 1044.98
GAMGPCG:  Solving for p_rgh, Initial residual = 0.0168026, Final residual = 1.05087e-07, No Iterations 5
diagonal:  Solving for rho, Initial residual = 0, Final residual = 0, No Iterations 0
time step continuity errors : sum local = 4.4179e-09, global = 1.47971e-10, cumulative = 2.28267e-06
GAMGPCG:  Solving for p_rgh, Initial residual = 0.00300637, Final residual = 5.49029e-07, No Iterations 4
diagonal:  Solving for rho, Initial residual = 0, Final residual = 0, No Iterations 0
time step continuity errors : sum local = 2.14263e-08, global = 1.5503e-09, cumulative = 2.28422e-06
DILUPBiCGStab:  Solving for omega, Initial residual = 9.90064e-05, Final residual = 1.80809e-09, No Iterations 2
DILUPBiCGStab:  Solving for k, Initial residual = 0.00423586, Final residual = 3.19817e-09, No Iterations 3

ExecutionTime = 294.61 s  ClockTime = 294 s


Patch Mean : 302.705
Patch Variance : 0.00268527
Patch Gradient : 0.189724
End
