/*---------------------------------------------------------------------------*\
  =========                 |
  \\      /  F ield         | OpenFOAM: The Open Source CFD Toolbox
   \\    /   O peration     | Website:  https://openfoam.org
    \\  /    A nd           | Version:  dev
     \\/     M anipulation  |
\*---------------------------------------------------------------------------*/
Build  : dev-cabe48fb62c1
Exec   : fireDyMFoam
Date   : Apr 15 2019
Time   : 11:57:56
Host   : "Host"
PID    : 30802
I/O    : uncollated
Case   : /home/tesla/OpenFOAM/tesla-dev/run/rollerOpt_COBYLA_NEW
nProcs : 1
sigFpe : Enabling floating point exception trapping (FOAM_SIGFPE).
fileModificationChecking : Monitoring run-time modified files using timeStampMaster (fileModificationSkew 10)
allowSystemOperations : Allowing user-supplied system call operations

// * * * * * * * * * * * * * * * * * * * * * * * * * * * * * * * * * * * * * //
Create time

--> FOAM Warning : 
    From function void* Foam::dlOpen(const Foam::fileName&, bool)
    in file POSIX.C at line 1268
    dlopen error : libgroovyBC.so: cannot open shared object file: No such file or directory
--> FOAM Warning : 
    From function bool Foam::dlLibraryTable::open(const Foam::fileName&, bool)
    in file db/dynamicLibrary/dlLibraryTable/dlLibraryTable.C at line 105
    could not load "libgroovyBC.so"
Create mesh for time = 250

Selecting dynamicFvMesh dynamicRefineFvMesh
Detected 536 cells that are protected from refinement. Writing these to cellSet protectedCells.

PIMPLE: No convergence criteria found


PIMPLE: Operating solver in PISO mode


Initializing Solver

Selecting thermodynamics package 
{
    type            hePsiThermo;
    mixture         reactingMixture;
    transport       sutherland;
    thermo          janaf;
    energy          sensibleEnthalpy;
    equationOfState perfectGas;
    specie          specie;
}

Selecting chemistryReader foamChemistryReader
    elements not defined in "/home/tesla/OpenFOAM/tesla-dev/run/rollerOpt_COBYLA_NEW/constant/reactions"
Reading/calculating face flux field phi

No MRF models present

Selecting turbulence model type RAS
Selecting RAS turbulence model kOmegaSST
Selecting patchDistMethod meshWave
kOmegaSSTCoeffs
{
    delta           cubeRootVol;
    cubeRootVolCoeffs
    {
        deltaCoeff      1;
    }
    alphaK1         0.85;
    alphaK2         1;
    alphaOmega1     0.5;
    alphaOmega2     0.856;
    gamma1          0.555556;
    gamma2          0.44;
    beta1           0.075;
    beta2           0.0828;
    betaStar        0.09;
    a1              0.31;
    b1              1;
    c1              10;
    F3              false;
}

Selecting combustion model none<psiThermoCombustion>
--> FOAM Warning : 
    From function static Foam::autoPtr<T> Foam::combustionModel::New(typename CombustionModel::reactionThermo&, const Foam::compressibleTurbulenceModel&, const Foam::word&) [with CombustionModel = Foam::CombustionModel<Foam::psiReactionThermo>; typename CombustionModel::reactionThermo = Foam::psiReactionThermo]
    in file /home/tesla/OpenFOAM/OpenFOAM-dev/src/combustionModels/lnInclude/combustionModelTemplates.C at line 69
    Template parameters are no longer required when selecting a combustionModel. This information is now obtained directly from the thermodynamics. Actually selecting combustion model none.

Reading g

Reading hRef
Calculating field g.h


Reading pRef
Selecting radiationModel P1
Selecting absorptionEmissionModel greyMeanAbsorptionEmission
Selecting scatterModel none
Selecting sootModel none
Creating finite volume options from "system/fvOptions"

No finite volume options present
Using LTS

Starting time loop

Using dynamicCode for functionObject patchCalcs at line 64 in "/home/tesla/OpenFOAM/tesla-dev/run/rollerOpt_COBYLA_NEW/system/controlDict.functions.patchCalcs"
    Overall     = 0.00157135, 0.01
Time = 251

diagonal:  Solving for rho, Initial residual = 0, Final residual = 0, No Iterations 0

Execution time for mesh.update() = 0 s

DILUPBiCGStab:  Solving for Ux, Initial residual = 0.00609553, Final residual = 3.64552e-09, No Iterations 3
DILUPBiCGStab:  Solving for Uy, Initial residual = 0.00730863, Final residual = 3.69575e-09, No Iterations 3
GAMGPCG:  Solving for G, Initial residual = 0.0304402, Final residual = 8.60713e-05, No Iterations 4
DILUPBiCGStab:  Solving for O2, Initial residual = 0.00325328, Final residual = 1.4304e-09, No Iterations 3
DILUPBiCGStab:  Solving for H2O, Initial residual = 0.00325325, Final residual = 1.43051e-09, No Iterations 3
DILUPBiCGStab:  Solving for CH4, Initial residual = 0, Final residual = 0, No Iterations 0
DILUPBiCGStab:  Solving for CO2, Initial residual = 0.00325325, Final residual = 1.43049e-09, No Iterations 3
DILUPBiCGStab:  Solving for h, Initial residual = 0.00383066, Final residual = 1.33874e-09, No Iterations 3
min/max(T) = 300, 1044.94
GAMGPCG:  Solving for p_rgh, Initial residual = 0.0204927, Final residual = 8.6899e-07, No Iterations 4
diagonal:  Solving for rho, Initial residual = 0, Final residual = 0, No Iterations 0
time step continuity errors : sum local = 2.47269e-06, global = -9.36072e-08, cumulative = -9.36072e-08
GAMGPCG:  Solving for p_rgh, Initial residual = 0.00251571, Final residual = 2.60946e-07, No Iterations 4
diagonal:  Solving for rho, Initial residual = 0, Final residual = 0, No Iterations 0
time step continuity errors : sum local = 2.46468e-06, global = -9.28069e-08, cumulative = -1.86414e-07
DILUPBiCGStab:  Solving for omega, Initial residual = 0.000118509, Final residual = 1.25883e-09, No Iterations 2
DILUPBiCGStab:  Solving for k, Initial residual = 0.00679937, Final residual = 2.00012e-09, No Iterations 3

ExecutionTime = 0.38 s  ClockTime = 1 s

    Overall     = 0.00155919, 0.01
Time = 252

diagonal:  Solving for rho, Initial residual = 0, Final residual = 0, No Iterations 0

Execution time for mesh.update() = 0 s

DILUPBiCGStab:  Solving for Ux, Initial residual = 0.00608588, Final residual = 3.85582e-09, No Iterations 3
DILUPBiCGStab:  Solving for Uy, Initial residual = 0.00729498, Final residual = 3.95263e-09, No Iterations 3
DILUPBiCGStab:  Solving for O2, Initial residual = 0.00325135, Final residual = 1.32038e-09, No Iterations 3
DILUPBiCGStab:  Solving for H2O, Initial residual = 0.00325135, Final residual = 1.32036e-09, No Iterations 3
DILUPBiCGStab:  Solving for CH4, Initial residual = 0, Final residual = 0, No Iterations 0
DILUPBiCGStab:  Solving for CO2, Initial residual = 0.00325135, Final residual = 1.32034e-09, No Iterations 3
DILUPBiCGStab:  Solving for h, Initial residual = 0.00383943, Final residual = 1.28944e-09, No Iterations 3
min/max(T) = 300, 1044.94
GAMGPCG:  Solving for p_rgh, Initial residual = 0.0200385, Final residual = 1.55064e-07, No Iterations 5
diagonal:  Solving for rho, Initial residual = 0, Final residual = 0, No Iterations 0
time step continuity errors : sum local = 9.06375e-09, global = 7.70089e-10, cumulative = -1.85644e-07
GAMGPCG:  Solving for p_rgh, Initial residual = 0.00245119, Final residual = 2.20807e-07, No Iterations 4
diagonal:  Solving for rho, Initial residual = 0, Final residual = 0, No Iterations 0
time step continuity errors : sum local = 1.21837e-08, global = -3.09534e-10, cumulative = -1.85954e-07
DILUPBiCGStab:  Solving for omega, Initial residual = 0.000119426, Final residual = 1.21181e-09, No Iterations 2
DILUPBiCGStab:  Solving for k, Initial residual = 0.00681689, Final residual = 1.83356e-09, No Iterations 3

ExecutionTime = 0.5 s  ClockTime = 1 s

    Overall     = 0.00154689, 0.01
Time = 253

diagonal:  Solving for rho, Initial residual = 0, Final residual = 0, No Iterations 0

Execution time for mesh.update() = 0 s

DILUPBiCGStab:  Solving for Ux, Initial residual = 0.0060672, Final residual = 3.67397e-09, No Iterations 3
DILUPBiCGStab:  Solving for Uy, Initial residual = 0.00725222, Final residual = 3.79658e-09, No Iterations 3
DILUPBiCGStab:  Solving for O2, Initial residual = 0.00324671, Final residual = 1.40335e-09, No Iterations 3
DILUPBiCGStab:  Solving for H2O, Initial residual = 0.00324672, Final residual = 1.40334e-09, No Iterations 3
DILUPBiCGStab:  Solving for CH4, Initial residual = 0, Final residual = 0, No Iterations 0
DILUPBiCGStab:  Solving for CO2, Initial residual = 0.00324672, Final residual = 1.40334e-09, No Iterations 3
DILUPBiCGStab:  Solving for h, Initial residual = 0.00383711, Final residual = 1.34752e-09, No Iterations 3
min/max(T) = 300, 1044.94
GAMGPCG:  Solving for p_rgh, Initial residual = 0.0197984, Final residual = 1.49801e-07, No Iterations 5
diagonal:  Solving for rho, Initial residual = 0, Final residual = 0, No Iterations 0
time step continuity errors : sum local = 8.74719e-09, global = 1.2644e-09, cumulative = -1.84689e-07
GAMGPCG:  Solving for p_rgh, Initial residual = 0.00246235, Final residual = 2.0502e-07, No Iterations 4
diagonal:  Solving for rho, Initial residual = 0, Final residual = 0, No Iterations 0
time step continuity errors : sum local = 1.12997e-08, global = -3.79431e-10, cumulative = -1.85069e-07
DILUPBiCGStab:  Solving for omega, Initial residual = 0.00011912, Final residual = 1.19757e-09, No Iterations 2
DILUPBiCGStab:  Solving for k, Initial residual = 0.00683477, Final residual = 1.84425e-09, No Iterations 3

ExecutionTime = 0.61 s  ClockTime = 1 s

    Overall     = 0.00153501, 0.01
Time = 254

diagonal:  Solving for rho, Initial residual = 0, Final residual = 0, No Iterations 0

Execution time for mesh.update() = 0 s

DILUPBiCGStab:  Solving for Ux, Initial residual = 0.0060737, Final residual = 3.65338e-09, No Iterations 3
DILUPBiCGStab:  Solving for Uy, Initial residual = 0.00722608, Final residual = 3.89222e-09, No Iterations 3
DILUPBiCGStab:  Solving for O2, Initial residual = 0.00324627, Final residual = 1.42952e-09, No Iterations 3
DILUPBiCGStab:  Solving for H2O, Initial residual = 0.00324627, Final residual = 1.42952e-09, No Iterations 3
DILUPBiCGStab:  Solving for CH4, Initial residual = 0, Final residual = 0, No Iterations 0
DILUPBiCGStab:  Solving for CO2, Initial residual = 0.00324627, Final residual = 1.42953e-09, No Iterations 3
DILUPBiCGStab:  Solving for h, Initial residual = 0.00383818, Final residual = 1.39792e-09, No Iterations 3
min/max(T) = 300, 1044.94
GAMGPCG:  Solving for p_rgh, Initial residual = 0.020013, Final residual = 1.58814e-07, No Iterations 5
diagonal:  Solving for rho, Initial residual = 0, Final residual = 0, No Iterations 0
time step continuity errors : sum local = 9.37909e-09, global = 7.89423e-10, cumulative = -1.84279e-07
GAMGPCG:  Solving for p_rgh, Initial residual = 0.00248929, Final residual = 1.98847e-07, No Iterations 4
diagonal:  Solving for rho, Initial residual = 0, Final residual = 0, No Iterations 0
time step continuity errors : sum local = 1.09958e-08, global = -4.17011e-10, cumulative = -1.84696e-07
DILUPBiCGStab:  Solving for omega, Initial residual = 0.000117877, Final residual = 1.20462e-09, No Iterations 2
DILUPBiCGStab:  Solving for k, Initial residual = 0.0068467, Final residual = 1.74699e-09, No Iterations 3

ExecutionTime = 0.73 s  ClockTime = 1 s

    Overall     = 0.00152307, 0.01
Time = 255

diagonal:  Solving for rho, Initial residual = 0, Final residual = 0, No Iterations 0

Execution time for mesh.update() = 0 s

DILUPBiCGStab:  Solving for Ux, Initial residual = 0.00607671, Final residual = 3.60059e-09, No Iterations 3
DILUPBiCGStab:  Solving for Uy, Initial residual = 0.00719061, Final residual = 3.98393e-09, No Iterations 3
DILUPBiCGStab:  Solving for O2, Initial residual = 0.00324073, Final residual = 1.46996e-09, No Iterations 3
DILUPBiCGStab:  Solving for H2O, Initial residual = 0.00324073, Final residual = 1.46997e-09, No Iterations 3
DILUPBiCGStab:  Solving for CH4, Initial residual = 0, Final residual = 0, No Iterations 0
DILUPBiCGStab:  Solving for CO2, Initial residual = 0.00324073, Final residual = 1.46998e-09, No Iterations 3
DILUPBiCGStab:  Solving for h, Initial residual = 0.0038409, Final residual = 1.42767e-09, No Iterations 3
min/max(T) = 300, 1044.94
GAMGPCG:  Solving for p_rgh, Initial residual = 0.0199659, Final residual = 9.94334e-07, No Iterations 4
diagonal:  Solving for rho, Initial residual = 0, Final residual = 0, No Iterations 0
time step continuity errors : sum local = 5.62197e-08, global = 5.65359e-10, cumulative = -1.84131e-07
GAMGPCG:  Solving for p_rgh, Initial residual = 0.00264283, Final residual = 1.72099e-07, No Iterations 4
diagonal:  Solving for rho, Initial residual = 0, Final residual = 0, No Iterations 0
time step continuity errors : sum local = 9.55886e-09, global = -3.08832e-10, cumulative = -1.8444e-07
DILUPBiCGStab:  Solving for omega, Initial residual = 0.000118563, Final residual = 1.22222e-09, No Iterations 2
DILUPBiCGStab:  Solving for k, Initial residual = 0.00684928, Final residual = 1.70818e-09, No Iterations 3

ExecutionTime = 0.85 s  ClockTime = 1 s

    Overall     = 0.00151216, 0.01
Time = 256

diagonal:  Solving for rho, Initial residual = 0, Final residual = 0, No Iterations 0

Execution time for mesh.update() = 0 s

DILUPBiCGStab:  Solving for Ux, Initial residual = 0.00606809, Final residual = 3.26805e-09, No Iterations 3
DILUPBiCGStab:  Solving for Uy, Initial residual = 0.00716905, Final residual = 3.66097e-09, No Iterations 3
DILUPBiCGStab:  Solving for O2, Initial residual = 0.00323241, Final residual = 1.39267e-09, No Iterations 3
DILUPBiCGStab:  Solving for H2O, Initial residual = 0.00323241, Final residual = 1.3927e-09, No Iterations 3
DILUPBiCGStab:  Solving for CH4, Initial residual = 0, Final residual = 0, No Iterations 0
DILUPBiCGStab:  Solving for CO2, Initial residual = 0.00323241, Final residual = 1.39271e-09, No Iterations 3
DILUPBiCGStab:  Solving for h, Initial residual = 0.00384205, Final residual = 1.41469e-09, No Iterations 3
min/max(T) = 300, 1044.94
GAMGPCG:  Solving for p_rgh, Initial residual = 0.0191697, Final residual = 9.7787e-07, No Iterations 4
diagonal:  Solving for rho, Initial residual = 0, Final residual = 0, No Iterations 0
time step continuity errors : sum local = 5.53142e-08, global = 1.70449e-10, cumulative = -1.84269e-07
GAMGPCG:  Solving for p_rgh, Initial residual = 0.00251603, Final residual = 1.71138e-07, No Iterations 4
diagonal:  Solving for rho, Initial residual = 0, Final residual = 0, No Iterations 0
time step continuity errors : sum local = 9.34283e-09, global = -5.06639e-11, cumulative = -1.8432e-07
DILUPBiCGStab:  Solving for omega, Initial residual = 0.000118161, Final residual = 1.25012e-09, No Iterations 2
DILUPBiCGStab:  Solving for k, Initial residual = 0.00685707, Final residual = 1.67635e-09, No Iterations 3

ExecutionTime = 0.96 s  ClockTime = 1 s

    Overall     = 0.00150178, 0.01
Time = 257

diagonal:  Solving for rho, Initial residual = 0, Final residual = 0, No Iterations 0

Execution time for mesh.update() = 0 s

DILUPBiCGStab:  Solving for Ux, Initial residual = 0.00605669, Final residual = 2.89641e-09, No Iterations 3
DILUPBiCGStab:  Solving for Uy, Initial residual = 0.00713312, Final residual = 3.51129e-09, No Iterations 3
DILUPBiCGStab:  Solving for O2, Initial residual = 0.00322748, Final residual = 1.42149e-09, No Iterations 3
DILUPBiCGStab:  Solving for H2O, Initial residual = 0.00322748, Final residual = 1.42152e-09, No Iterations 3
DILUPBiCGStab:  Solving for CH4, Initial residual = 0, Final residual = 0, No Iterations 0
DILUPBiCGStab:  Solving for CO2, Initial residual = 0.00322748, Final residual = 1.42152e-09, No Iterations 3
DILUPBiCGStab:  Solving for h, Initial residual = 0.00383835, Final residual = 1.4459e-09, No Iterations 3
min/max(T) = 300, 1044.94
GAMGPCG:  Solving for p_rgh, Initial residual = 0.0195782, Final residual = 1.49708e-07, No Iterations 5
diagonal:  Solving for rho, Initial residual = 0, Final residual = 0, No Iterations 0
time step continuity errors : sum local = 8.6319e-09, global = 5.11344e-10, cumulative = -1.83809e-07
GAMGPCG:  Solving for p_rgh, Initial residual = 0.00252406, Final residual = 1.66071e-07, No Iterations 4
diagonal:  Solving for rho, Initial residual = 0, Final residual = 0, No Iterations 0
time step continuity errors : sum local = 8.99666e-09, global = 1.28656e-10, cumulative = -1.8368e-07
DILUPBiCGStab:  Solving for omega, Initial residual = 0.000117994, Final residual = 1.17615e-09, No Iterations 2
DILUPBiCGStab:  Solving for k, Initial residual = 0.00686035, Final residual = 1.69337e-09, No Iterations 3

ExecutionTime = 1.08 s  ClockTime = 1 s

    Overall     = 0.00149295, 0.01
Time = 258

diagonal:  Solving for rho, Initial residual = 0, Final residual = 0, No Iterations 0

Execution time for mesh.update() = 0 s

DILUPBiCGStab:  Solving for Ux, Initial residual = 0.00605424, Final residual = 2.86207e-09, No Iterations 3
DILUPBiCGStab:  Solving for Uy, Initial residual = 0.00709284, Final residual = 3.33334e-09, No Iterations 3
DILUPBiCGStab:  Solving for O2, Initial residual = 0.00322831, Final residual = 1.41384e-09, No Iterations 3
DILUPBiCGStab:  Solving for H2O, Initial residual = 0.00322831, Final residual = 1.41387e-09, No Iterations 3
DILUPBiCGStab:  Solving for CH4, Initial residual = 0, Final residual = 0, No Iterations 0
DILUPBiCGStab:  Solving for CO2, Initial residual = 0.00322831, Final residual = 1.41387e-09, No Iterations 3
DILUPBiCGStab:  Solving for h, Initial residual = 0.00383383, Final residual = 1.45561e-09, No Iterations 3
min/max(T) = 300, 1044.94
GAMGPCG:  Solving for p_rgh, Initial residual = 0.0183622, Final residual = 8.55909e-07, No Iterations 4
diagonal:  Solving for rho, Initial residual = 0, Final residual = 0, No Iterations 0
time step continuity errors : sum local = 4.8067e-08, global = 5.6616e-11, cumulative = -1.83623e-07
GAMGPCG:  Solving for p_rgh, Initial residual = 0.00238938, Final residual = 1.81924e-07, No Iterations 4
diagonal:  Solving for rho, Initial residual = 0, Final residual = 0, No Iterations 0
time step continuity errors : sum local = 9.8595e-09, global = -6.22195e-11, cumulative = -1.83685e-07
DILUPBiCGStab:  Solving for omega, Initial residual = 0.000116984, Final residual = 1.17867e-09, No Iterations 2
DILUPBiCGStab:  Solving for k, Initial residual = 0.00687993, Final residual = 1.64049e-09, No Iterations 3

ExecutionTime = 1.2 s  ClockTime = 1 s

    Overall     = 0.00148442, 0.01
Time = 259

diagonal:  Solving for rho, Initial residual = 0, Final residual = 0, No Iterations 0

Execution time for mesh.update() = 0 s

DILUPBiCGStab:  Solving for Ux, Initial residual = 0.00603575, Final residual = 2.67637e-09, No Iterations 3
DILUPBiCGStab:  Solving for Uy, Initial residual = 0.00704297, Final residual = 3.38468e-09, No Iterations 3
DILUPBiCGStab:  Solving for O2, Initial residual = 0.00322744, Final residual = 1.41772e-09, No Iterations 3
DILUPBiCGStab:  Solving for H2O, Initial residual = 0.00322744, Final residual = 1.41775e-09, No Iterations 3
DILUPBiCGStab:  Solving for CH4, Initial residual = 0, Final residual = 0, No Iterations 0
DILUPBiCGStab:  Solving for CO2, Initial residual = 0.00322744, Final residual = 1.41774e-09, No Iterations 3
DILUPBiCGStab:  Solving for h, Initial residual = 0.00384228, Final residual = 1.45597e-09, No Iterations 3
min/max(T) = 300, 1044.94
GAMGPCG:  Solving for p_rgh, Initial residual = 0.0188114, Final residual = 1.28421e-07, No Iterations 5
diagonal:  Solving for rho, Initial residual = 0, Final residual = 0, No Iterations 0
time step continuity errors : sum local = 7.38806e-09, global = 6.33119e-10, cumulative = -1.83052e-07
GAMGPCG:  Solving for p_rgh, Initial residual = 0.00234288, Final residual = 2.27911e-07, No Iterations 4
diagonal:  Solving for rho, Initial residual = 0, Final residual = 0, No Iterations 0
time step continuity errors : sum local = 1.21933e-08, global = 3.00106e-11, cumulative = -1.83022e-07
DILUPBiCGStab:  Solving for omega, Initial residual = 0.000117172, Final residual = 1.0587e-09, No Iterations 2
DILUPBiCGStab:  Solving for k, Initial residual = 0.00687168, Final residual = 1.57455e-09, No Iterations 3

ExecutionTime = 1.32 s  ClockTime = 2 s

    Overall     = 0.0014769, 0.01
Time = 260

diagonal:  Solving for rho, Initial residual = 0, Final residual = 0, No Iterations 0

Execution time for mesh.update() = 0 s

DILUPBiCGStab:  Solving for Ux, Initial residual = 0.00601931, Final residual = 2.6438e-09, No Iterations 3
DILUPBiCGStab:  Solving for Uy, Initial residual = 0.0070188, Final residual = 3.21691e-09, No Iterations 3
GAMGPCG:  Solving for G, Initial residual = 0.143068, Final residual = 2.33894e-05, No Iterations 6
DILUPBiCGStab:  Solving for O2, Initial residual = 0.00321744, Final residual = 1.43401e-09, No Iterations 3
DILUPBiCGStab:  Solving for H2O, Initial residual = 0.00321744, Final residual = 1.43403e-09, No Iterations 3
DILUPBiCGStab:  Solving for CH4, Initial residual = 0, Final residual = 0, No Iterations 0
DILUPBiCGStab:  Solving for CO2, Initial residual = 0.00321744, Final residual = 1.43403e-09, No Iterations 3
DILUPBiCGStab:  Solving for h, Initial residual = 0.00384088, Final residual = 1.4203e-09, No Iterations 3
min/max(T) = 300, 1044.94
GAMGPCG:  Solving for p_rgh, Initial residual = 0.0181598, Final residual = 7.44301e-07, No Iterations 4
diagonal:  Solving for rho, Initial residual = 0, Final residual = 0, No Iterations 0
time step continuity errors : sum local = 4.15454e-08, global = 2.27699e-10, cumulative = -1.82795e-07
GAMGPCG:  Solving for p_rgh, Initial residual = 0.00240145, Final residual = 2.04824e-07, No Iterations 4
diagonal:  Solving for rho, Initial residual = 0, Final residual = 0, No Iterations 0
time step continuity errors : sum local = 1.09964e-08, global = -1.23383e-10, cumulative = -1.82918e-07
DILUPBiCGStab:  Solving for omega, Initial residual = 0.000116145, Final residual = 1.07538e-09, No Iterations 2
DILUPBiCGStab:  Solving for k, Initial residual = 0.00685222, Final residual = 1.82544e-09, No Iterations 3

ExecutionTime = 1.57 s  ClockTime = 2 s

    Overall     = 0.00147005, 0.01
Time = 261

diagonal:  Solving for rho, Initial residual = 0, Final residual = 0, No Iterations 0

Execution time for mesh.update() = 0 s

DILUPBiCGStab:  Solving for Ux, Initial residual = 0.00599863, Final residual = 2.57717e-09, No Iterations 3
DILUPBiCGStab:  Solving for Uy, Initial residual = 0.00696039, Final residual = 3.39e-09, No Iterations 3
DILUPBiCGStab:  Solving for O2, Initial residual = 0.00321565, Final residual = 1.28021e-09, No Iterations 3
DILUPBiCGStab:  Solving for H2O, Initial residual = 0.00321564, Final residual = 1.28022e-09, No Iterations 3
DILUPBiCGStab:  Solving for CH4, Initial residual = 0, Final residual = 0, No Iterations 0
DILUPBiCGStab:  Solving for CO2, Initial residual = 0.00321564, Final residual = 1.28022e-09, No Iterations 3
DILUPBiCGStab:  Solving for h, Initial residual = 0.00383758, Final residual = 1.31044e-09, No Iterations 3
min/max(T) = 300, 1044.94
GAMGPCG:  Solving for p_rgh, Initial residual = 0.0184994, Final residual = 9.15973e-07, No Iterations 4
diagonal:  Solving for rho, Initial residual = 0, Final residual = 0, No Iterations 0
time step continuity errors : sum local = 5.17693e-08, global = -1.62765e-10, cumulative = -1.83081e-07
GAMGPCG:  Solving for p_rgh, Initial residual = 0.00230424, Final residual = 2.10627e-07, No Iterations 4
diagonal:  Solving for rho, Initial residual = 0, Final residual = 0, No Iterations 0
time step continuity errors : sum local = 1.12109e-08, global = -8.92081e-11, cumulative = -1.8317e-07
DILUPBiCGStab:  Solving for omega, Initial residual = 0.000116425, Final residual = 1.00127e-09, No Iterations 2
DILUPBiCGStab:  Solving for k, Initial residual = 0.00684197, Final residual = 1.37903e-09, No Iterations 3

ExecutionTime = 1.69 s  ClockTime = 2 s

    Overall     = 0.00146402, 0.01
Time = 262

diagonal:  Solving for rho, Initial residual = 0, Final residual = 0, No Iterations 0

Execution time for mesh.update() = 0 s

DILUPBiCGStab:  Solving for Ux, Initial residual = 0.00598695, Final residual = 2.57288e-09, No Iterations 3
DILUPBiCGStab:  Solving for Uy, Initial residual = 0.00693044, Final residual = 3.57452e-09, No Iterations 3
DILUPBiCGStab:  Solving for O2, Initial residual = 0.00320753, Final residual = 1.2823e-09, No Iterations 3
DILUPBiCGStab:  Solving for H2O, Initial residual = 0.00320753, Final residual = 1.28231e-09, No Iterations 3
DILUPBiCGStab:  Solving for CH4, Initial residual = 0, Final residual = 0, No Iterations 0
DILUPBiCGStab:  Solving for CO2, Initial residual = 0.00320753, Final residual = 1.28231e-09, No Iterations 3
DILUPBiCGStab:  Solving for h, Initial residual = 0.00383406, Final residual = 1.22917e-09, No Iterations 3
min/max(T) = 300, 1044.94
GAMGPCG:  Solving for p_rgh, Initial residual = 0.017952, Final residual = 6.70105e-07, No Iterations 4
diagonal:  Solving for rho, Initial residual = 0, Final residual = 0, No Iterations 0
time step continuity errors : sum local = 3.69939e-08, global = -2.36418e-10, cumulative = -1.83406e-07
GAMGPCG:  Solving for p_rgh, Initial residual = 0.00223653, Final residual = 2.20602e-07, No Iterations 4
diagonal:  Solving for rho, Initial residual = 0, Final residual = 0, No Iterations 0
time step continuity errors : sum local = 1.17838e-08, global = 2.43788e-10, cumulative = -1.83163e-07
DILUPBiCGStab:  Solving for omega, Initial residual = 0.00011522, Final residual = 9.69866e-10, No Iterations 2
DILUPBiCGStab:  Solving for k, Initial residual = 0.00683813, Final residual = 2.13015e-09, No Iterations 3

ExecutionTime = 1.8 s  ClockTime = 2 s

    Overall     = 0.00145999, 0.01
Time = 263

diagonal:  Solving for rho, Initial residual = 0, Final residual = 0, No Iterations 0

Execution time for mesh.update() = 0 s

DILUPBiCGStab:  Solving for Ux, Initial residual = 0.00598226, Final residual = 2.41896e-09, No Iterations 3
DILUPBiCGStab:  Solving for Uy, Initial residual = 0.00687379, Final residual = 3.49386e-09, No Iterations 3
DILUPBiCGStab:  Solving for O2, Initial residual = 0.003212, Final residual = 1.38879e-09, No Iterations 3
DILUPBiCGStab:  Solving for H2O, Initial residual = 0.003212, Final residual = 1.38881e-09, No Iterations 3
DILUPBiCGStab:  Solving for CH4, Initial residual = 0, Final residual = 0, No Iterations 0
DILUPBiCGStab:  Solving for CO2, Initial residual = 0.003212, Final residual = 1.38881e-09, No Iterations 3
DILUPBiCGStab:  Solving for h, Initial residual = 0.00384417, Final residual = 1.29392e-09, No Iterations 3
min/max(T) = 300, 1044.94
GAMGPCG:  Solving for p_rgh, Initial residual = 0.0183517, Final residual = 8.14031e-07, No Iterations 4
diagonal:  Solving for rho, Initial residual = 0, Final residual = 0, No Iterations 0
time step continuity errors : sum local = 4.60212e-08, global = -1.96517e-10, cumulative = -1.83359e-07
GAMGPCG:  Solving for p_rgh, Initial residual = 0.00212482, Final residual = 2.81749e-07, No Iterations 4
diagonal:  Solving for rho, Initial residual = 0, Final residual = 0, No Iterations 0
time step continuity errors : sum local = 1.50361e-08, global = 8.36974e-11, cumulative = -1.83275e-07
DILUPBiCGStab:  Solving for omega, Initial residual = 0.000115495, Final residual = 9.83511e-10, No Iterations 2
DILUPBiCGStab:  Solving for k, Initial residual = 0.00683764, Final residual = 1.72157e-09, No Iterations 3

ExecutionTime = 1.92 s  ClockTime = 2 s

    Overall     = 0.0014553, 0.01
Time = 264

diagonal:  Solving for rho, Initial residual = 0, Final residual = 0, No Iterations 0

Execution time for mesh.update() = 0 s

DILUPBiCGStab:  Solving for Ux, Initial residual = 0.00597255, Final residual = 2.40929e-09, No Iterations 3
DILUPBiCGStab:  Solving for Uy, Initial residual = 0.00686107, Final residual = 3.27775e-09, No Iterations 3
DILUPBiCGStab:  Solving for O2, Initial residual = 0.0032114, Final residual = 1.41293e-09, No Iterations 3
DILUPBiCGStab:  Solving for H2O, Initial residual = 0.0032114, Final residual = 1.41293e-09, No Iterations 3
DILUPBiCGStab:  Solving for CH4, Initial residual = 0, Final residual = 0, No Iterations 0
DILUPBiCGStab:  Solving for CO2, Initial residual = 0.0032114, Final residual = 1.41293e-09, No Iterations 3
DILUPBiCGStab:  Solving for h, Initial residual = 0.00385425, Final residual = 1.29415e-09, No Iterations 3
min/max(T) = 300, 1044.94
GAMGPCG:  Solving for p_rgh, Initial residual = 0.0179197, Final residual = 5.66733e-07, No Iterations 4
diagonal:  Solving for rho, Initial residual = 0, Final residual = 0, No Iterations 0
time step continuity errors : sum local = 3.11266e-08, global = -4.76166e-10, cumulative = -1.83752e-07
GAMGPCG:  Solving for p_rgh, Initial residual = 0.00218448, Final residual = 1.90669e-07, No Iterations 4
diagonal:  Solving for rho, Initial residual = 0, Final residual = 0, No Iterations 0
time step continuity errors : sum local = 1.02698e-08, global = 2.74032e-10, cumulative = -1.83478e-07
DILUPBiCGStab:  Solving for omega, Initial residual = 0.000116063, Final residual = 9.36683e-10, No Iterations 2
DILUPBiCGStab:  Solving for k, Initial residual = 0.0068437, Final residual = 4.73397e-09, No Iterations 3

ExecutionTime = 2.04 s  ClockTime = 2 s

    Overall     = 0.00145493, 0.01
Time = 265

diagonal:  Solving for rho, Initial residual = 0, Final residual = 0, No Iterations 0

Execution time for mesh.update() = 0 s

DILUPBiCGStab:  Solving for Ux, Initial residual = 0.00594964, Final residual = 2.38775e-09, No Iterations 3
DILUPBiCGStab:  Solving for Uy, Initial residual = 0.00680017, Final residual = 3.49339e-09, No Iterations 3
DILUPBiCGStab:  Solving for O2, Initial residual = 0.00321233, Final residual = 1.56696e-09, No Iterations 3
DILUPBiCGStab:  Solving for H2O, Initial residual = 0.00321233, Final residual = 1.56696e-09, No Iterations 3
DILUPBiCGStab:  Solving for CH4, Initial residual = 0, Final residual = 0, No Iterations 0
DILUPBiCGStab:  Solving for CO2, Initial residual = 0.00321233, Final residual = 1.56695e-09, No Iterations 3
DILUPBiCGStab:  Solving for h, Initial residual = 0.00386404, Final residual = 1.56967e-09, No Iterations 3
min/max(T) = 300, 1044.94
GAMGPCG:  Solving for p_rgh, Initial residual = 0.0173535, Final residual = 8.32522e-07, No Iterations 4
diagonal:  Solving for rho, Initial residual = 0, Final residual = 0, No Iterations 0
time step continuity errors : sum local = 4.69743e-08, global = 3.71439e-10, cumulative = -1.83106e-07
GAMGPCG:  Solving for p_rgh, Initial residual = 0.00204673, Final residual = 2.53285e-07, No Iterations 4
diagonal:  Solving for rho, Initial residual = 0, Final residual = 0, No Iterations 0
time step continuity errors : sum local = 1.35752e-08, global = 3.5821e-11, cumulative = -1.8307e-07
DILUPBiCGStab:  Solving for omega, Initial residual = 0.000115427, Final residual = 9.73142e-10, No Iterations 2
DILUPBiCGStab:  Solving for k, Initial residual = 0.00684118, Final residual = 3.29789e-09, No Iterations 3

ExecutionTime = 2.16 s  ClockTime = 2 s

    Overall     = 0.00145042, 0.01
Time = 266

diagonal:  Solving for rho, Initial residual = 0, Final residual = 0, No Iterations 0

Execution time for mesh.update() = 0 s

DILUPBiCGStab:  Solving for Ux, Initial residual = 0.0059505, Final residual = 2.29619e-09, No Iterations 3
DILUPBiCGStab:  Solving for Uy, Initial residual = 0.00681315, Final residual = 3.18821e-09, No Iterations 3
DILUPBiCGStab:  Solving for O2, Initial residual = 0.00321984, Final residual = 1.33781e-09, No Iterations 3
DILUPBiCGStab:  Solving for H2O, Initial residual = 0.00321984, Final residual = 1.33781e-09, No Iterations 3
DILUPBiCGStab:  Solving for CH4, Initial residual = 0, Final residual = 0, No Iterations 0
DILUPBiCGStab:  Solving for CO2, Initial residual = 0.00321984, Final residual = 1.33781e-09, No Iterations 3
DILUPBiCGStab:  Solving for h, Initial residual = 0.00387779, Final residual = 1.27643e-09, No Iterations 3
min/max(T) = 300, 1044.94
GAMGPCG:  Solving for p_rgh, Initial residual = 0.0175052, Final residual = 5.22495e-07, No Iterations 4
diagonal:  Solving for rho, Initial residual = 0, Final residual = 0, No Iterations 0
time step continuity errors : sum local = 2.88475e-08, global = -1.56983e-09, cumulative = -1.8464e-07
GAMGPCG:  Solving for p_rgh, Initial residual = 0.00210451, Final residual = 1.62725e-07, No Iterations 4
diagonal:  Solving for rho, Initial residual = 0, Final residual = 0, No Iterations 0
time step continuity errors : sum local = 8.8412e-09, global = 2.47887e-10, cumulative = -1.84392e-07
DILUPBiCGStab:  Solving for omega, Initial residual = 0.000114816, Final residual = 9.08023e-10, No Iterations 2
DILUPBiCGStab:  Solving for k, Initial residual = 0.00684188, Final residual = 3.74872e-09, No Iterations 3

ExecutionTime = 2.27 s  ClockTime = 3 s

    Overall     = 0.00145497, 0.01
Time = 267

diagonal:  Solving for rho, Initial residual = 0, Final residual = 0, No Iterations 0

Execution time for mesh.update() = 0 s

DILUPBiCGStab:  Solving for Ux, Initial residual = 0.00594986, Final residual = 2.29108e-09, No Iterations 3
DILUPBiCGStab:  Solving for Uy, Initial residual = 0.00679331, Final residual = 3.16764e-09, No Iterations 3
DILUPBiCGStab:  Solving for O2, Initial residual = 0.00321214, Final residual = 1.42747e-09, No Iterations 3
DILUPBiCGStab:  Solving for H2O, Initial residual = 0.00321214, Final residual = 1.42748e-09, No Iterations 3
DILUPBiCGStab:  Solving for CH4, Initial residual = 0, Final residual = 0, No Iterations 0
DILUPBiCGStab:  Solving for CO2, Initial residual = 0.00321214, Final residual = 1.42748e-09, No Iterations 3
DILUPBiCGStab:  Solving for h, Initial residual = 0.00387497, Final residual = 1.30219e-09, No Iterations 3
min/max(T) = 300, 1044.94
GAMGPCG:  Solving for p_rgh, Initial residual = 0.0175322, Final residual = 7.70428e-07, No Iterations 4
diagonal:  Solving for rho, Initial residual = 0, Final residual = 0, No Iterations 0
time step continuity errors : sum local = 4.38948e-08, global = 1.15621e-09, cumulative = -1.83236e-07
GAMGPCG:  Solving for p_rgh, Initial residual = 0.00213658, Final residual = 1.95768e-07, No Iterations 4
diagonal:  Solving for rho, Initial residual = 0, Final residual = 0, No Iterations 0
time step continuity errors : sum local = 1.07067e-08, global = -1.65491e-10, cumulative = -1.83402e-07
DILUPBiCGStab:  Solving for omega, Initial residual = 0.000114551, Final residual = 9.03789e-10, No Iterations 2
DILUPBiCGStab:  Solving for k, Initial residual = 0.00685604, Final residual = 1.98459e-09, No Iterations 3

ExecutionTime = 2.39 s  ClockTime = 3 s

    Overall     = 0.00144971, 0.01
Time = 268

diagonal:  Solving for rho, Initial residual = 0, Final residual = 0, No Iterations 0

Execution time for mesh.update() = 0 s

DILUPBiCGStab:  Solving for Ux, Initial residual = 0.00593173, Final residual = 2.34065e-09, No Iterations 3
DILUPBiCGStab:  Solving for Uy, Initial residual = 0.00677073, Final residual = 2.88888e-09, No Iterations 3
DILUPBiCGStab:  Solving for O2, Initial residual = 0.00322409, Final residual = 1.38467e-09, No Iterations 3
DILUPBiCGStab:  Solving for H2O, Initial residual = 0.00322409, Final residual = 1.38467e-09, No Iterations 3
DILUPBiCGStab:  Solving for CH4, Initial residual = 0, Final residual = 0, No Iterations 0
DILUPBiCGStab:  Solving for CO2, Initial residual = 0.00322409, Final residual = 1.38467e-09, No Iterations 3
DILUPBiCGStab:  Solving for h, Initial residual = 0.00388773, Final residual = 1.21335e-09, No Iterations 3
min/max(T) = 300, 1044.94
GAMGPCG:  Solving for p_rgh, Initial residual = 0.0177401, Final residual = 4.04975e-07, No Iterations 4
diagonal:  Solving for rho, Initial residual = 0, Final residual = 0, No Iterations 0
time step continuity errors : sum local = 2.23594e-08, global = -9.48978e-10, cumulative = -1.84351e-07
GAMGPCG:  Solving for p_rgh, Initial residual = 0.00206368, Final residual = 1.20538e-07, No Iterations 4
diagonal:  Solving for rho, Initial residual = 0, Final residual = 0, No Iterations 0
time step continuity errors : sum local = 6.5419e-09, global = 2.17717e-10, cumulative = -1.84133e-07
DILUPBiCGStab:  Solving for omega, Initial residual = 0.00011412, Final residual = 9.08502e-10, No Iterations 2
DILUPBiCGStab:  Solving for k, Initial residual = 0.0068559, Final residual = 2.05808e-09, No Iterations 3

ExecutionTime = 2.5 s  ClockTime = 3 s

    Overall     = 0.00146227, 0.01
Time = 269

diagonal:  Solving for rho, Initial residual = 0, Final residual = 0, No Iterations 0

Execution time for mesh.update() = 0 s

DILUPBiCGStab:  Solving for Ux, Initial residual = 0.00595756, Final residual = 2.44403e-09, No Iterations 3
DILUPBiCGStab:  Solving for Uy, Initial residual = 0.00677883, Final residual = 2.91565e-09, No Iterations 3
DILUPBiCGStab:  Solving for O2, Initial residual = 0.00322763, Final residual = 1.36306e-09, No Iterations 3
DILUPBiCGStab:  Solving for H2O, Initial residual = 0.00322762, Final residual = 1.36306e-09, No Iterations 3
DILUPBiCGStab:  Solving for CH4, Initial residual = 0, Final residual = 0, No Iterations 0
DILUPBiCGStab:  Solving for CO2, Initial residual = 0.00322762, Final residual = 1.36306e-09, No Iterations 3
DILUPBiCGStab:  Solving for h, Initial residual = 0.00390355, Final residual = 1.20306e-09, No Iterations 3
min/max(T) = 300, 1044.94
GAMGPCG:  Solving for p_rgh, Initial residual = 0.0184216, Final residual = 5.64717e-07, No Iterations 4
diagonal:  Solving for rho, Initial residual = 0, Final residual = 0, No Iterations 0
time step continuity errors : sum local = 3.26836e-08, global = 1.78003e-09, cumulative = -1.82353e-07
GAMGPCG:  Solving for p_rgh, Initial residual = 0.00213988, Final residual = 1.95721e-07, No Iterations 4
diagonal:  Solving for rho, Initial residual = 0, Final residual = 0, No Iterations 0
time step continuity errors : sum local = 1.0623e-08, global = -4.37771e-10, cumulative = -1.82791e-07
DILUPBiCGStab:  Solving for omega, Initial residual = 0.00011486, Final residual = 8.93479e-10, No Iterations 2
DILUPBiCGStab:  Solving for k, Initial residual = 0.006866, Final residual = 1.2605e-09, No Iterations 3

ExecutionTime = 2.62 s  ClockTime = 3 s

    Overall     = 0.00144942, 0.01
Time = 270

diagonal:  Solving for rho, Initial residual = 0, Final residual = 0, No Iterations 0

Execution time for mesh.update() = 0 s

DILUPBiCGStab:  Solving for Ux, Initial residual = 0.00594782, Final residual = 2.49467e-09, No Iterations 3
DILUPBiCGStab:  Solving for Uy, Initial residual = 0.00679322, Final residual = 2.7629e-09, No Iterations 3
GAMGPCG:  Solving for G, Initial residual = 0.135459, Final residual = 2.76325e-05, No Iterations 5
DILUPBiCGStab:  Solving for O2, Initial residual = 0.00323581, Final residual = 1.45366e-09, No Iterations 3
DILUPBiCGStab:  Solving for H2O, Initial residual = 0.00323581, Final residual = 1.45366e-09, No Iterations 3
DILUPBiCGStab:  Solving for CH4, Initial residual = 0, Final residual = 0, No Iterations 0
DILUPBiCGStab:  Solving for CO2, Initial residual = 0.00323581, Final residual = 1.45366e-09, No Iterations 3
DILUPBiCGStab:  Solving for h, Initial residual = 0.00392448, Final residual = 1.25939e-09, No Iterations 3
min/max(T) = 300, 1044.94
GAMGPCG:  Solving for p_rgh, Initial residual = 0.0181944, Final residual = 3.00776e-07, No Iterations 4
diagonal:  Solving for rho, Initial residual = 0, Final residual = 0, No Iterations 0
time step continuity errors : sum local = 1.6679e-08, global = -1.65397e-10, cumulative = -1.82956e-07
GAMGPCG:  Solving for p_rgh, Initial residual = 0.00219923, Final residual = 9.68422e-08, No Iterations 4
diagonal:  Solving for rho, Initial residual = 0, Final residual = 0, No Iterations 0
time step continuity errors : sum local = 5.21616e-09, global = 3.05667e-10, cumulative = -1.8265e-07
DILUPBiCGStab:  Solving for omega, Initial residual = 0.000115467, Final residual = 8.73806e-10, No Iterations 2
DILUPBiCGStab:  Solving for k, Initial residual = 0.00687177, Final residual = 1.31402e-09, No Iterations 3

ExecutionTime = 2.87 s  ClockTime = 3 s

    Overall     = 0.001476, 0.01
Time = 271

diagonal:  Solving for rho, Initial residual = 0, Final residual = 0, No Iterations 0

Execution time for mesh.update() = 0 s

DILUPBiCGStab:  Solving for Ux, Initial residual = 0.00596797, Final residual = 2.5037e-09, No Iterations 3
DILUPBiCGStab:  Solving for Uy, Initial residual = 0.00679484, Final residual = 2.6282e-09, No Iterations 3
DILUPBiCGStab:  Solving for O2, Initial residual = 0.00323059, Final residual = 1.45257e-09, No Iterations 3
DILUPBiCGStab:  Solving for H2O, Initial residual = 0.00323059, Final residual = 1.45257e-09, No Iterations 3
DILUPBiCGStab:  Solving for CH4, Initial residual = 0, Final residual = 0, No Iterations 0
DILUPBiCGStab:  Solving for CO2, Initial residual = 0.00323059, Final residual = 1.45257e-09, No Iterations 3
DILUPBiCGStab:  Solving for h, Initial residual = 0.00392721, Final residual = 1.25861e-09, No Iterations 3
min/max(T) = 300, 1044.94
GAMGPCG:  Solving for p_rgh, Initial residual = 0.0186323, Final residual = 4.78325e-07, No Iterations 4
diagonal:  Solving for rho, Initial residual = 0, Final residual = 0, No Iterations 0
time step continuity errors : sum local = 2.76906e-08, global = 2.05968e-09, cumulative = -1.80591e-07
GAMGPCG:  Solving for p_rgh, Initial residual = 0.00216801, Final residual = 1.99228e-07, No Iterations 4
diagonal:  Solving for rho, Initial residual = 0, Final residual = 0, No Iterations 0
time step continuity errors : sum local = 1.08955e-08, global = -8.62654e-10, cumulative = -1.81453e-07
DILUPBiCGStab:  Solving for omega, Initial residual = 0.000116425, Final residual = 9.03369e-10, No Iterations 2
DILUPBiCGStab:  Solving for k, Initial residual = 0.00688369, Final residual = 1.30336e-09, No Iterations 3

ExecutionTime = 2.99 s  ClockTime = 3 s

    Overall     = 0.00144754, 0.01
Time = 272

diagonal:  Solving for rho, Initial residual = 0, Final residual = 0, No Iterations 0

Execution time for mesh.update() = 0 s

DILUPBiCGStab:  Solving for Ux, Initial residual = 0.00596122, Final residual = 2.19246e-09, No Iterations 3
DILUPBiCGStab:  Solving for Uy, Initial residual = 0.00677253, Final residual = 2.51606e-09, No Iterations 3
DILUPBiCGStab:  Solving for O2, Initial residual = 0.00324678, Final residual = 1.57968e-09, No Iterations 3
DILUPBiCGStab:  Solving for H2O, Initial residual = 0.00324677, Final residual = 1.57969e-09, No Iterations 3
DILUPBiCGStab:  Solving for CH4, Initial residual = 0, Final residual = 0, No Iterations 0
DILUPBiCGStab:  Solving for CO2, Initial residual = 0.00324677, Final residual = 1.57969e-09, No Iterations 3
DILUPBiCGStab:  Solving for h, Initial residual = 0.00395022, Final residual = 1.38693e-09, No Iterations 3
min/max(T) = 300, 1044.94
GAMGPCG:  Solving for p_rgh, Initial residual = 0.0189107, Final residual = 3.76987e-07, No Iterations 4
diagonal:  Solving for rho, Initial residual = 0, Final residual = 0, No Iterations 0
time step continuity errors : sum local = 2.10396e-08, global = -8.85333e-10, cumulative = -1.82339e-07
GAMGPCG:  Solving for p_rgh, Initial residual = 0.00223268, Final residual = 1.09745e-07, No Iterations 4
diagonal:  Solving for rho, Initial residual = 0, Final residual = 0, No Iterations 0
time step continuity errors : sum local = 5.89087e-09, global = 4.57982e-10, cumulative = -1.81881e-07
DILUPBiCGStab:  Solving for omega, Initial residual = 0.000115333, Final residual = 8.73326e-10, No Iterations 2
DILUPBiCGStab:  Solving for k, Initial residual = 0.00688323, Final residual = 1.31227e-09, No Iterations 3

ExecutionTime = 3.1 s  ClockTime = 3 s

    Overall     = 0.00149102, 0.01
Time = 273

diagonal:  Solving for rho, Initial residual = 0, Final residual = 0, No Iterations 0

Execution time for mesh.update() = 0 s

DILUPBiCGStab:  Solving for Ux, Initial residual = 0.0059834, Final residual = 2.22553e-09, No Iterations 3
DILUPBiCGStab:  Solving for Uy, Initial residual = 0.00677105, Final residual = 2.49942e-09, No Iterations 3
DILUPBiCGStab:  Solving for O2, Initial residual = 0.003243, Final residual = 1.54814e-09, No Iterations 3
DILUPBiCGStab:  Solving for H2O, Initial residual = 0.003243, Final residual = 1.54815e-09, No Iterations 3
DILUPBiCGStab:  Solving for CH4, Initial residual = 0, Final residual = 0, No Iterations 0
DILUPBiCGStab:  Solving for CO2, Initial residual = 0.003243, Final residual = 1.54815e-09, No Iterations 3
DILUPBiCGStab:  Solving for h, Initial residual = 0.00395166, Final residual = 1.40252e-09, No Iterations 3
min/max(T) = 300, 1044.94
GAMGPCG:  Solving for p_rgh, Initial residual = 0.0188386, Final residual = 4.58831e-07, No Iterations 4
diagonal:  Solving for rho, Initial residual = 0, Final residual = 0, No Iterations 0
time step continuity errors : sum local = 2.63856e-08, global = 1.39319e-09, cumulative = -1.80487e-07
GAMGPCG:  Solving for p_rgh, Initial residual = 0.00224948, Final residual = 1.91487e-07, No Iterations 4
diagonal:  Solving for rho, Initial residual = 0, Final residual = 0, No Iterations 0
time step continuity errors : sum local = 1.06888e-08, global = -1.51838e-09, cumulative = -1.82006e-07
DILUPBiCGStab:  Solving for omega, Initial residual = 0.000115458, Final residual = 9.11135e-10, No Iterations 2
DILUPBiCGStab:  Solving for k, Initial residual = 0.00688054, Final residual = 1.35427e-09, No Iterations 3

ExecutionTime = 3.22 s  ClockTime = 3 s

    Overall     = 0.00145676, 0.01
Time = 274

diagonal:  Solving for rho, Initial residual = 0, Final residual = 0, No Iterations 0

Execution time for mesh.update() = 0 s

DILUPBiCGStab:  Solving for Ux, Initial residual = 0.0059798, Final residual = 1.98459e-09, No Iterations 3
DILUPBiCGStab:  Solving for Uy, Initial residual = 0.00674606, Final residual = 2.45168e-09, No Iterations 3
DILUPBiCGStab:  Solving for O2, Initial residual = 0.00325737, Final residual = 1.65266e-09, No Iterations 3
DILUPBiCGStab:  Solving for H2O, Initial residual = 0.00325737, Final residual = 1.65266e-09, No Iterations 3
DILUPBiCGStab:  Solving for CH4, Initial residual = 0, Final residual = 0, No Iterations 0
DILUPBiCGStab:  Solving for CO2, Initial residual = 0.00325737, Final residual = 1.65266e-09, No Iterations 3
DILUPBiCGStab:  Solving for h, Initial residual = 0.00396827, Final residual = 1.57783e-09, No Iterations 3
min/max(T) = 300, 1044.94
GAMGPCG:  Solving for p_rgh, Initial residual = 0.0187292, Final residual = 4.98529e-07, No Iterations 4
diagonal:  Solving for rho, Initial residual = 0, Final residual = 0, No Iterations 0
time step continuity errors : sum local = 2.80015e-08, global = -2.24593e-09, cumulative = -1.84252e-07
GAMGPCG:  Solving for p_rgh, Initial residual = 0.00216098, Final residual = 1.26502e-07, No Iterations 4
diagonal:  Solving for rho, Initial residual = 0, Final residual = 0, No Iterations 0
time step continuity errors : sum local = 6.74406e-09, global = 7.00356e-10, cumulative = -1.83551e-07
DILUPBiCGStab:  Solving for omega, Initial residual = 0.000115353, Final residual = 9.06048e-10, No Iterations 2
DILUPBiCGStab:  Solving for k, Initial residual = 0.0068692, Final residual = 1.40444e-09, No Iterations 3

ExecutionTime = 3.34 s  ClockTime = 4 s

    Overall     = 0.00150114, 0.01
Time = 275

diagonal:  Solving for rho, Initial residual = 0, Final residual = 0, No Iterations 0

Execution time for mesh.update() = 0 s

DILUPBiCGStab:  Solving for Ux, Initial residual = 0.00601492, Final residual = 2.14817e-09, No Iterations 3
DILUPBiCGStab:  Solving for Uy, Initial residual = 0.00674125, Final residual = 2.4201e-09, No Iterations 3
DILUPBiCGStab:  Solving for O2, Initial residual = 0.00325261, Final residual = 1.63085e-09, No Iterations 3
DILUPBiCGStab:  Solving for H2O, Initial residual = 0.0032526, Final residual = 1.63085e-09, No Iterations 3
DILUPBiCGStab:  Solving for CH4, Initial residual = 0, Final residual = 0, No Iterations 0
DILUPBiCGStab:  Solving for CO2, Initial residual = 0.0032526, Final residual = 1.63085e-09, No Iterations 3
DILUPBiCGStab:  Solving for h, Initial residual = 0.00397031, Final residual = 1.50731e-09, No Iterations 3
min/max(T) = 300, 1044.94
GAMGPCG:  Solving for p_rgh, Initial residual = 0.0191068, Final residual = 4.75388e-07, No Iterations 4
diagonal:  Solving for rho, Initial residual = 0, Final residual = 0, No Iterations 0
time step continuity errors : sum local = 2.69807e-08, global = 7.37711e-10, cumulative = -1.82814e-07
GAMGPCG:  Solving for p_rgh, Initial residual = 0.00222436, Final residual = 1.70499e-07, No Iterations 4
diagonal:  Solving for rho, Initial residual = 0, Final residual = 0, No Iterations 0
time step continuity errors : sum local = 9.44499e-09, global = -5.50714e-10, cumulative = -1.83364e-07
DILUPBiCGStab:  Solving for omega, Initial residual = 0.000115643, Final residual = 9.01331e-10, No Iterations 2
DILUPBiCGStab:  Solving for k, Initial residual = 0.00688346, Final residual = 1.41462e-09, No Iterations 3

ExecutionTime = 3.45 s  ClockTime = 4 s

    Overall     = 0.00146775, 0.01
Time = 276

diagonal:  Solving for rho, Initial residual = 0, Final residual = 0, No Iterations 0

Execution time for mesh.update() = 0 s

DILUPBiCGStab:  Solving for Ux, Initial residual = 0.00601258, Final residual = 2.01679e-09, No Iterations 3
DILUPBiCGStab:  Solving for Uy, Initial residual = 0.00672512, Final residual = 2.46222e-09, No Iterations 3
DILUPBiCGStab:  Solving for O2, Initial residual = 0.00326475, Final residual = 1.69909e-09, No Iterations 3
DILUPBiCGStab:  Solving for H2O, Initial residual = 0.00326475, Final residual = 1.69908e-09, No Iterations 3
DILUPBiCGStab:  Solving for CH4, Initial residual = 0, Final residual = 0, No Iterations 0
DILUPBiCGStab:  Solving for CO2, Initial residual = 0.00326475, Final residual = 1.69909e-09, No Iterations 3
DILUPBiCGStab:  Solving for h, Initial residual = 0.00398794, Final residual = 1.6125e-09, No Iterations 3
min/max(T) = 300, 1044.94
GAMGPCG:  Solving for p_rgh, Initial residual = 0.0196568, Final residual = 5.83056e-07, No Iterations 4
diagonal:  Solving for rho, Initial residual = 0, Final residual = 0, No Iterations 0
time step continuity errors : sum local = 3.20257e-08, global = -3.27738e-09, cumulative = -1.86642e-07
GAMGPCG:  Solving for p_rgh, Initial residual = 0.00224432, Final residual = 1.03894e-07, No Iterations 4
diagonal:  Solving for rho, Initial residual = 0, Final residual = 0, No Iterations 0
time step continuity errors : sum local = 5.51216e-09, global = 6.05487e-10, cumulative = -1.86036e-07
DILUPBiCGStab:  Solving for omega, Initial residual = 0.000115736, Final residual = 9.14303e-10, No Iterations 2
DILUPBiCGStab:  Solving for k, Initial residual = 0.00689071, Final residual = 1.40969e-09, No Iterations 3

ExecutionTime = 3.57 s  ClockTime = 4 s

    Overall     = 0.00151243, 0.01
Time = 277

diagonal:  Solving for rho, Initial residual = 0, Final residual = 0, No Iterations 0

Execution time for mesh.update() = 0 s

DILUPBiCGStab:  Solving for Ux, Initial residual = 0.00604443, Final residual = 2.02714e-09, No Iterations 3
DILUPBiCGStab:  Solving for Uy, Initial residual = 0.00674405, Final residual = 2.32648e-09, No Iterations 3
DILUPBiCGStab:  Solving for O2, Initial residual = 0.00326475, Final residual = 1.6584e-09, No Iterations 3
DILUPBiCGStab:  Solving for H2O, Initial residual = 0.00326474, Final residual = 1.6584e-09, No Iterations 3
DILUPBiCGStab:  Solving for CH4, Initial residual = 0, Final residual = 0, No Iterations 0
DILUPBiCGStab:  Solving for CO2, Initial residual = 0.00326474, Final residual = 1.6584e-09, No Iterations 3
DILUPBiCGStab:  Solving for h, Initial residual = 0.00399231, Final residual = 1.54672e-09, No Iterations 3
min/max(T) = 300, 1044.94
GAMGPCG:  Solving for p_rgh, Initial residual = 0.0195922, Final residual = 6.0331e-07, No Iterations 4
diagonal:  Solving for rho, Initial residual = 0, Final residual = 0, No Iterations 0
time step continuity errors : sum local = 3.43044e-08, global = 6.09894e-10, cumulative = -1.85426e-07
GAMGPCG:  Solving for p_rgh, Initial residual = 0.00227284, Final residual = 1.68991e-07, No Iterations 4
diagonal:  Solving for rho, Initial residual = 0, Final residual = 0, No Iterations 0
time step continuity errors : sum local = 9.44659e-09, global = -1.05899e-09, cumulative = -1.86485e-07
DILUPBiCGStab:  Solving for omega, Initial residual = 0.00011556, Final residual = 8.82255e-10, No Iterations 2
DILUPBiCGStab:  Solving for k, Initial residual = 0.00690701, Final residual = 1.4227e-09, No Iterations 3

ExecutionTime = 3.69 s  ClockTime = 4 s

    Overall     = 0.00147852, 0.01
Time = 278

diagonal:  Solving for rho, Initial residual = 0, Final residual = 0, No Iterations 0

Execution time for mesh.update() = 0 s

DILUPBiCGStab:  Solving for Ux, Initial residual = 0.00603641, Final residual = 2.19868e-09, No Iterations 3
DILUPBiCGStab:  Solving for Uy, Initial residual = 0.00671654, Final residual = 2.47947e-09, No Iterations 3
DILUPBiCGStab:  Solving for O2, Initial residual = 0.00327646, Final residual = 1.66065e-09, No Iterations 3
DILUPBiCGStab:  Solving for H2O, Initial residual = 0.00327645, Final residual = 1.66065e-09, No Iterations 3
DILUPBiCGStab:  Solving for CH4, Initial residual = 0, Final residual = 0, No Iterations 0
DILUPBiCGStab:  Solving for CO2, Initial residual = 0.00327645, Final residual = 1.66065e-09, No Iterations 3
DILUPBiCGStab:  Solving for h, Initial residual = 0.00400677, Final residual = 1.4985e-09, No Iterations 3
min/max(T) = 300, 1044.94
GAMGPCG:  Solving for p_rgh, Initial residual = 0.020353, Final residual = 5.34657e-07, No Iterations 4
diagonal:  Solving for rho, Initial residual = 0, Final residual = 0, No Iterations 0
time step continuity errors : sum local = 2.98978e-08, global = -4.29677e-09, cumulative = -1.90782e-07
GAMGPCG:  Solving for p_rgh, Initial residual = 0.00233898, Final residual = 1.11378e-07, No Iterations 4
diagonal:  Solving for rho, Initial residual = 0, Final residual = 0, No Iterations 0
time step continuity errors : sum local = 5.90766e-09, global = 5.35215e-10, cumulative = -1.90247e-07
DILUPBiCGStab:  Solving for omega, Initial residual = 0.000114331, Final residual = 8.85263e-10, No Iterations 2
DILUPBiCGStab:  Solving for k, Initial residual = 0.00691811, Final residual = 1.40349e-09, No Iterations 3

ExecutionTime = 3.8 s  ClockTime = 4 s

    Overall     = 0.0015249, 0.01
Time = 279

diagonal:  Solving for rho, Initial residual = 0, Final residual = 0, No Iterations 0

Execution time for mesh.update() = 0 s

DILUPBiCGStab:  Solving for Ux, Initial residual = 0.00605331, Final residual = 2.4039e-09, No Iterations 3
DILUPBiCGStab:  Solving for Uy, Initial residual = 0.00671824, Final residual = 2.44459e-09, No Iterations 3
DILUPBiCGStab:  Solving for O2, Initial residual = 0.00328007, Final residual = 1.58949e-09, No Iterations 3
DILUPBiCGStab:  Solving for H2O, Initial residual = 0.00328007, Final residual = 1.58949e-09, No Iterations 3
DILUPBiCGStab:  Solving for CH4, Initial residual = 0, Final residual = 0, No Iterations 0
DILUPBiCGStab:  Solving for CO2, Initial residual = 0.00328007, Final residual = 1.58949e-09, No Iterations 3
DILUPBiCGStab:  Solving for h, Initial residual = 0.00401306, Final residual = 1.40859e-09, No Iterations 3
min/max(T) = 300, 1044.94
GAMGPCG:  Solving for p_rgh, Initial residual = 0.0202141, Final residual = 5.36464e-07, No Iterations 4
diagonal:  Solving for rho, Initial residual = 0, Final residual = 0, No Iterations 0
time step continuity errors : sum local = 3.03954e-08, global = 2.01457e-10, cumulative = -1.90045e-07
GAMGPCG:  Solving for p_rgh, Initial residual = 0.00230774, Final residual = 1.73031e-07, No Iterations 4
diagonal:  Solving for rho, Initial residual = 0, Final residual = 0, No Iterations 0
time step continuity errors : sum local = 9.70085e-09, global = -8.96143e-10, cumulative = -1.90942e-07
DILUPBiCGStab:  Solving for omega, Initial residual = 0.00011443, Final residual = 8.61533e-10, No Iterations 2
DILUPBiCGStab:  Solving for k, Initial residual = 0.00693135, Final residual = 1.45841e-09, No Iterations 3

ExecutionTime = 3.92 s  ClockTime = 4 s

    Overall     = 0.00149216, 0.01
Time = 280

diagonal:  Solving for rho, Initial residual = 0, Final residual = 0, No Iterations 0

Execution time for mesh.update() = 0 s

DILUPBiCGStab:  Solving for Ux, Initial residual = 0.00605599, Final residual = 2.40375e-09, No Iterations 3
DILUPBiCGStab:  Solving for Uy, Initial residual = 0.00667749, Final residual = 2.3382e-09, No Iterations 3
GAMGPCG:  Solving for G, Initial residual = 0.151359, Final residual = 3.43222e-05, No Iterations 6
DILUPBiCGStab:  Solving for O2, Initial residual = 0.00327251, Final residual = 1.59318e-09, No Iterations 3
DILUPBiCGStab:  Solving for H2O, Initial residual = 0.0032725, Final residual = 1.59318e-09, No Iterations 3
DILUPBiCGStab:  Solving for CH4, Initial residual = 0, Final residual = 0, No Iterations 0
DILUPBiCGStab:  Solving for CO2, Initial residual = 0.0032725, Final residual = 1.59318e-09, No Iterations 3
DILUPBiCGStab:  Solving for h, Initial residual = 0.00400481, Final residual = 1.42658e-09, No Iterations 3
min/max(T) = 300, 1044.94
GAMGPCG:  Solving for p_rgh, Initial residual = 0.0201254, Final residual = 4.87657e-07, No Iterations 4
diagonal:  Solving for rho, Initial residual = 0, Final residual = 0, No Iterations 0
time step continuity errors : sum local = 2.73121e-08, global = -5.13592e-09, cumulative = -1.96078e-07
GAMGPCG:  Solving for p_rgh, Initial residual = 0.00228403, Final residual = 1.05384e-07, No Iterations 4
diagonal:  Solving for rho, Initial residual = 0, Final residual = 0, No Iterations 0
time step continuity errors : sum local = 5.64367e-09, global = 8.00518e-10, cumulative = -1.95277e-07
DILUPBiCGStab:  Solving for omega, Initial residual = 0.000113258, Final residual = 8.82873e-10, No Iterations 2
DILUPBiCGStab:  Solving for k, Initial residual = 0.00693478, Final residual = 1.45894e-09, No Iterations 3

ExecutionTime = 4.17 s  ClockTime = 4 s

    Overall     = 0.00153943, 0.01
Time = 281

diagonal:  Solving for rho, Initial residual = 0, Final residual = 0, No Iterations 0

Execution time for mesh.update() = 0 s

DILUPBiCGStab:  Solving for Ux, Initial residual = 0.00608533, Final residual = 2.57547e-09, No Iterations 3
DILUPBiCGStab:  Solving for Uy, Initial residual = 0.00668499, Final residual = 2.24639e-09, No Iterations 3
DILUPBiCGStab:  Solving for O2, Initial residual = 0.0032692, Final residual = 1.57638e-09, No Iterations 3
DILUPBiCGStab:  Solving for H2O, Initial residual = 0.00326919, Final residual = 1.57638e-09, No Iterations 3
DILUPBiCGStab:  Solving for CH4, Initial residual = 0, Final residual = 0, No Iterations 0
DILUPBiCGStab:  Solving for CO2, Initial residual = 0.00326919, Final residual = 1.57638e-09, No Iterations 3
DILUPBiCGStab:  Solving for h, Initial residual = 0.00400233, Final residual = 1.41852e-09, No Iterations 3
min/max(T) = 300, 1044.94
GAMGPCG:  Solving for p_rgh, Initial residual = 0.0196643, Final residual = 6.16085e-07, No Iterations 4
diagonal:  Solving for rho, Initial residual = 0, Final residual = 0, No Iterations 0
time step continuity errors : sum local = 3.5057e-08, global = -2.23045e-10, cumulative = -1.955e-07
GAMGPCG:  Solving for p_rgh, Initial residual = 0.00230593, Final residual = 9.387e-07, No Iterations 3
diagonal:  Solving for rho, Initial residual = 0, Final residual = 0, No Iterations 0
time step continuity errors : sum local = 5.05564e-08, global = -7.45139e-10, cumulative = -1.96245e-07
DILUPBiCGStab:  Solving for omega, Initial residual = 0.000113338, Final residual = 8.5511e-10, No Iterations 2
DILUPBiCGStab:  Solving for k, Initial residual = 0.00694487, Final residual = 1.47341e-09, No Iterations 3

ExecutionTime = 4.29 s  ClockTime = 5 s

    Overall     = 0.00150783, 0.01
Time = 282

diagonal:  Solving for rho, Initial residual = 0, Final residual = 0, No Iterations 0

Execution time for mesh.update() = 0 s

DILUPBiCGStab:  Solving for Ux, Initial residual = 0.00607621, Final residual = 2.49171e-09, No Iterations 3
DILUPBiCGStab:  Solving for Uy, Initial residual = 0.00664323, Final residual = 2.26921e-09, No Iterations 3
DILUPBiCGStab:  Solving for O2, Initial residual = 0.00327191, Final residual = 1.58747e-09, No Iterations 3
DILUPBiCGStab:  Solving for H2O, Initial residual = 0.0032719, Final residual = 1.58746e-09, No Iterations 3
DILUPBiCGStab:  Solving for CH4, Initial residual = 0, Final residual = 0, No Iterations 0
DILUPBiCGStab:  Solving for CO2, Initial residual = 0.0032719, Final residual = 1.58746e-09, No Iterations 3
DILUPBiCGStab:  Solving for h, Initial residual = 0.00400612, Final residual = 1.44999e-09, No Iterations 3
min/max(T) = 300, 1044.94
GAMGPCG:  Solving for p_rgh, Initial residual = 0.0198001, Final residual = 5.60028e-07, No Iterations 4
diagonal:  Solving for rho, Initial residual = 0, Final residual = 0, No Iterations 0
time step continuity errors : sum local = 3.09872e-08, global = -3.90781e-09, cumulative = -2.00153e-07
GAMGPCG:  Solving for p_rgh, Initial residual = 0.00222328, Final residual = 1.15768e-07, No Iterations 4
diagonal:  Solving for rho, Initial residual = 0, Final residual = 0, No Iterations 0
time step continuity errors : sum local = 6.17114e-09, global = 9.62156e-10, cumulative = -1.99191e-07
DILUPBiCGStab:  Solving for omega, Initial residual = 0.000112414, Final residual = 8.94154e-10, No Iterations 2
DILUPBiCGStab:  Solving for k, Initial residual = 0.00694406, Final residual = 1.59644e-09, No Iterations 3

ExecutionTime = 4.4 s  ClockTime = 5 s

    Overall     = 0.0015565, 0.01
Time = 283

diagonal:  Solving for rho, Initial residual = 0, Final residual = 0, No Iterations 0

Execution time for mesh.update() = 0 s

DILUPBiCGStab:  Solving for Ux, Initial residual = 0.0060993, Final residual = 2.50195e-09, No Iterations 3
DILUPBiCGStab:  Solving for Uy, Initial residual = 0.006648, Final residual = 2.19525e-09, No Iterations 3
DILUPBiCGStab:  Solving for O2, Initial residual = 0.00327312, Final residual = 1.53752e-09, No Iterations 3
DILUPBiCGStab:  Solving for H2O, Initial residual = 0.00327312, Final residual = 1.53752e-09, No Iterations 3
DILUPBiCGStab:  Solving for CH4, Initial residual = 0, Final residual = 0, No Iterations 0
DILUPBiCGStab:  Solving for CO2, Initial residual = 0.00327312, Final residual = 1.53751e-09, No Iterations 3
DILUPBiCGStab:  Solving for h, Initial residual = 0.0040075, Final residual = 1.3318e-09, No Iterations 3
min/max(T) = 300, 1044.94
GAMGPCG:  Solving for p_rgh, Initial residual = 0.0196637, Final residual = 7.2535e-07, No Iterations 4
diagonal:  Solving for rho, Initial residual = 0, Final residual = 0, No Iterations 0
time step continuity errors : sum local = 4.09281e-08, global = -1.76708e-09, cumulative = -2.00958e-07
GAMGPCG:  Solving for p_rgh, Initial residual = 0.002246, Final residual = 9.24871e-07, No Iterations 3
diagonal:  Solving for rho, Initial residual = 0, Final residual = 0, No Iterations 0
time step continuity errors : sum local = 5.06034e-08, global = -2.936e-09, cumulative = -2.03894e-07
DILUPBiCGStab:  Solving for omega, Initial residual = 0.000112804, Final residual = 8.59145e-10, No Iterations 2
DILUPBiCGStab:  Solving for k, Initial residual = 0.00696647, Final residual = 1.52417e-09, No Iterations 3

ExecutionTime = 4.52 s  ClockTime = 5 s

    Overall     = 0.00152575, 0.01
Time = 284

diagonal:  Solving for rho, Initial residual = 0, Final residual = 0, No Iterations 0

Execution time for mesh.update() = 0 s

DILUPBiCGStab:  Solving for Ux, Initial residual = 0.00608286, Final residual = 2.59911e-09, No Iterations 3
DILUPBiCGStab:  Solving for Uy, Initial residual = 0.00660699, Final residual = 2.35977e-09, No Iterations 3
DILUPBiCGStab:  Solving for O2, Initial residual = 0.00328036, Final residual = 1.45565e-09, No Iterations 3
DILUPBiCGStab:  Solving for H2O, Initial residual = 0.00328035, Final residual = 1.45565e-09, No Iterations 3
DILUPBiCGStab:  Solving for CH4, Initial residual = 0, Final residual = 0, No Iterations 0
DILUPBiCGStab:  Solving for CO2, Initial residual = 0.00328035, Final residual = 1.45564e-09, No Iterations 3
DILUPBiCGStab:  Solving for h, Initial residual = 0.0040177, Final residual = 1.26231e-09, No Iterations 3
min/max(T) = 300, 1044.94
GAMGPCG:  Solving for p_rgh, Initial residual = 0.0199835, Final residual = 4.27962e-07, No Iterations 4
diagonal:  Solving for rho, Initial residual = 0, Final residual = 0, No Iterations 0
time step continuity errors : sum local = 2.355e-08, global = -6.55091e-10, cumulative = -2.04549e-07
GAMGPCG:  Solving for p_rgh, Initial residual = 0.00225358, Final residual = 1.10242e-07, No Iterations 4
diagonal:  Solving for rho, Initial residual = 0, Final residual = 0, No Iterations 0
time step continuity errors : sum local = 5.76424e-09, global = 8.54448e-10, cumulative = -2.03695e-07
DILUPBiCGStab:  Solving for omega, Initial residual = 0.000112789, Final residual = 8.5465e-10, No Iterations 2
DILUPBiCGStab:  Solving for k, Initial residual = 0.00698498, Final residual = 1.54072e-09, No Iterations 3

ExecutionTime = 4.63 s  ClockTime = 5 s

    Overall     = 0.00157569, 0.01
Time = 285

diagonal:  Solving for rho, Initial residual = 0, Final residual = 0, No Iterations 0

Execution time for mesh.update() = 0 s

DILUPBiCGStab:  Solving for Ux, Initial residual = 0.00610826, Final residual = 2.35418e-09, No Iterations 3
DILUPBiCGStab:  Solving for Uy, Initial residual = 0.00661621, Final residual = 2.31816e-09, No Iterations 3
DILUPBiCGStab:  Solving for O2, Initial residual = 0.00327325, Final residual = 1.47694e-09, No Iterations 3
DILUPBiCGStab:  Solving for H2O, Initial residual = 0.00327324, Final residual = 1.47694e-09, No Iterations 3
DILUPBiCGStab:  Solving for CH4, Initial residual = 0, Final residual = 0, No Iterations 0
DILUPBiCGStab:  Solving for CO2, Initial residual = 0.00327324, Final residual = 1.47694e-09, No Iterations 3
DILUPBiCGStab:  Solving for h, Initial residual = 0.00401166, Final residual = 1.19584e-09, No Iterations 3
min/max(T) = 300, 1044.94
GAMGPCG:  Solving for p_rgh, Initial residual = 0.0198233, Final residual = 4.86376e-07, No Iterations 4
diagonal:  Solving for rho, Initial residual = 0, Final residual = 0, No Iterations 0
time step continuity errors : sum local = 2.72739e-08, global = -3.77969e-09, cumulative = -2.07474e-07
GAMGPCG:  Solving for p_rgh, Initial residual = 0.00220997, Final residual = 8.82495e-07, No Iterations 3
diagonal:  Solving for rho, Initial residual = 0, Final residual = 0, No Iterations 0
time step continuity errors : sum local = 4.82459e-08, global = -4.10135e-09, cumulative = -2.11576e-07
DILUPBiCGStab:  Solving for omega, Initial residual = 0.000112942, Final residual = 8.0249e-10, No Iterations 2
DILUPBiCGStab:  Solving for k, Initial residual = 0.00701613, Final residual = 1.39578e-09, No Iterations 3

ExecutionTime = 4.75 s  ClockTime = 5 s

    Overall     = 0.0015459, 0.01
Time = 286

diagonal:  Solving for rho, Initial residual = 0, Final residual = 0, No Iterations 0

Execution time for mesh.update() = 0 s

DILUPBiCGStab:  Solving for Ux, Initial residual = 0.00611384, Final residual = 2.59485e-09, No Iterations 3
DILUPBiCGStab:  Solving for Uy, Initial residual = 0.00659444, Final residual = 2.49014e-09, No Iterations 3
DILUPBiCGStab:  Solving for O2, Initial residual = 0.00326679, Final residual = 1.2736e-09, No Iterations 3
DILUPBiCGStab:  Solving for H2O, Initial residual = 0.00326678, Final residual = 1.27359e-09, No Iterations 3
DILUPBiCGStab:  Solving for CH4, Initial residual = 0, Final residual = 0, No Iterations 0
DILUPBiCGStab:  Solving for CO2, Initial residual = 0.00326678, Final residual = 1.27359e-09, No Iterations 3
DILUPBiCGStab:  Solving for h, Initial residual = 0.00401191, Final residual = 1.08592e-09, No Iterations 3
min/max(T) = 300, 1044.94
GAMGPCG:  Solving for p_rgh, Initial residual = 0.0199088, Final residual = 4.3619e-07, No Iterations 4
diagonal:  Solving for rho, Initial residual = 0, Final residual = 0, No Iterations 0
time step continuity errors : sum local = 2.38878e-08, global = 1.17225e-09, cumulative = -2.10403e-07
GAMGPCG:  Solving for p_rgh, Initial residual = 0.0022345, Final residual = 1.00602e-07, No Iterations 4
diagonal:  Solving for rho, Initial residual = 0, Final residual = 0, No Iterations 0
time step continuity errors : sum local = 5.32125e-09, global = 6.68657e-10, cumulative = -2.09735e-07
DILUPBiCGStab:  Solving for omega, Initial residual = 0.000112122, Final residual = 7.89642e-10, No Iterations 2
DILUPBiCGStab:  Solving for k, Initial residual = 0.00703627, Final residual = 1.28634e-09, No Iterations 3

ExecutionTime = 4.86 s  ClockTime = 5 s

    Overall     = 0.00159681, 0.01
Time = 287

diagonal:  Solving for rho, Initial residual = 0, Final residual = 0, No Iterations 0

Execution time for mesh.update() = 0 s

DILUPBiCGStab:  Solving for Ux, Initial residual = 0.00609496, Final residual = 2.44598e-09, No Iterations 3
DILUPBiCGStab:  Solving for Uy, Initial residual = 0.00657322, Final residual = 2.531e-09, No Iterations 3
DILUPBiCGStab:  Solving for O2, Initial residual = 0.00326563, Final residual = 1.3199e-09, No Iterations 3
DILUPBiCGStab:  Solving for H2O, Initial residual = 0.00326562, Final residual = 1.3199e-09, No Iterations 3
DILUPBiCGStab:  Solving for CH4, Initial residual = 0, Final residual = 0, No Iterations 0
DILUPBiCGStab:  Solving for CO2, Initial residual = 0.00326562, Final residual = 1.3199e-09, No Iterations 3
DILUPBiCGStab:  Solving for h, Initial residual = 0.00400699, Final residual = 1.06955e-09, No Iterations 3
min/max(T) = 300, 1044.94
GAMGPCG:  Solving for p_rgh, Initial residual = 0.0193594, Final residual = 4.68354e-07, No Iterations 4
diagonal:  Solving for rho, Initial residual = 0, Final residual = 0, No Iterations 0
time step continuity errors : sum local = 2.5844e-08, global = -8.18178e-11, cumulative = -2.09817e-07
GAMGPCG:  Solving for p_rgh, Initial residual = 0.00219418, Final residual = 8.11311e-07, No Iterations 3
diagonal:  Solving for rho, Initial residual = 0, Final residual = 0, No Iterations 0
time step continuity errors : sum local = 4.47584e-08, global = -2.23548e-09, cumulative = -2.12052e-07
DILUPBiCGStab:  Solving for omega, Initial residual = 0.000112414, Final residual = 7.70903e-10, No Iterations 2
DILUPBiCGStab:  Solving for k, Initial residual = 0.00705563, Final residual = 1.22762e-09, No Iterations 3

ExecutionTime = 4.97 s  ClockTime = 5 s

    Overall     = 0.00156727, 0.01
Time = 288

diagonal:  Solving for rho, Initial residual = 0, Final residual = 0, No Iterations 0

Execution time for mesh.update() = 0 s

DILUPBiCGStab:  Solving for Ux, Initial residual = 0.00612051, Final residual = 2.46962e-09, No Iterations 3
DILUPBiCGStab:  Solving for Uy, Initial residual = 0.00658806, Final residual = 2.6162e-09, No Iterations 3
DILUPBiCGStab:  Solving for O2, Initial residual = 0.00326664, Final residual = 1.21883e-09, No Iterations 3
DILUPBiCGStab:  Solving for H2O, Initial residual = 0.00326664, Final residual = 1.21883e-09, No Iterations 3
DILUPBiCGStab:  Solving for CH4, Initial residual = 0, Final residual = 0, No Iterations 0
DILUPBiCGStab:  Solving for CO2, Initial residual = 0.00326664, Final residual = 1.21883e-09, No Iterations 3
DILUPBiCGStab:  Solving for h, Initial residual = 0.00401575, Final residual = 1.08262e-09, No Iterations 3
min/max(T) = 300, 1044.94
GAMGPCG:  Solving for p_rgh, Initial residual = 0.0199982, Final residual = 4.55268e-07, No Iterations 4
diagonal:  Solving for rho, Initial residual = 0, Final residual = 0, No Iterations 0
time step continuity errors : sum local = 2.49208e-08, global = -7.80931e-10, cumulative = -2.12833e-07
GAMGPCG:  Solving for p_rgh, Initial residual = 0.0022489, Final residual = 1.41406e-07, No Iterations 4
diagonal:  Solving for rho, Initial residual = 0, Final residual = 0, No Iterations 0
time step continuity errors : sum local = 7.5753e-09, global = 4.75225e-10, cumulative = -2.12358e-07
DILUPBiCGStab:  Solving for omega, Initial residual = 0.00011244, Final residual = 7.56863e-10, No Iterations 2
DILUPBiCGStab:  Solving for k, Initial residual = 0.00707615, Final residual = 1.24478e-09, No Iterations 3

ExecutionTime = 5.09 s  ClockTime = 5 s

    Overall     = 0.00161901, 0.01
Time = 289

diagonal:  Solving for rho, Initial residual = 0, Final residual = 0, No Iterations 0

Execution time for mesh.update() = 0 s

DILUPBiCGStab:  Solving for Ux, Initial residual = 0.00611473, Final residual = 2.65568e-09, No Iterations 3
DILUPBiCGStab:  Solving for Uy, Initial residual = 0.00657822, Final residual = 2.58399e-09, No Iterations 3
DILUPBiCGStab:  Solving for O2, Initial residual = 0.00325912, Final residual = 1.4988e-09, No Iterations 3
DILUPBiCGStab:  Solving for H2O, Initial residual = 0.00325911, Final residual = 1.49879e-09, No Iterations 3
DILUPBiCGStab:  Solving for CH4, Initial residual = 0, Final residual = 0, No Iterations 0
DILUPBiCGStab:  Solving for CO2, Initial residual = 0.00325911, Final residual = 1.49879e-09, No Iterations 3
DILUPBiCGStab:  Solving for h, Initial residual = 0.0040059, Final residual = 1.24561e-09, No Iterations 3
min/max(T) = 300, 1044.94
GAMGPCG:  Solving for p_rgh, Initial residual = 0.0197586, Final residual = 5.06738e-07, No Iterations 4
diagonal:  Solving for rho, Initial residual = 0, Final residual = 0, No Iterations 0
time step continuity errors : sum local = 2.789e-08, global = 3.66976e-09, cumulative = -2.08688e-07
GAMGPCG:  Solving for p_rgh, Initial residual = 0.00230438, Final residual = 7.55223e-07, No Iterations 3
diagonal:  Solving for rho, Initial residual = 0, Final residual = 0, No Iterations 0
time step continuity errors : sum local = 4.12474e-08, global = -1.00492e-09, cumulative = -2.09693e-07
DILUPBiCGStab:  Solving for omega, Initial residual = 0.00011268, Final residual = 7.78651e-10, No Iterations 2
DILUPBiCGStab:  Solving for k, Initial residual = 0.00710058, Final residual = 1.29462e-09, No Iterations 3

ExecutionTime = 5.2 s  ClockTime = 5 s

    Overall     = 0.00158862, 0.01
Time = 290

diagonal:  Solving for rho, Initial residual = 0, Final residual = 0, No Iterations 0

Execution time for mesh.update() = 0 s

DILUPBiCGStab:  Solving for Ux, Initial residual = 0.00613096, Final residual = 2.63478e-09, No Iterations 3
DILUPBiCGStab:  Solving for Uy, Initial residual = 0.00658341, Final residual = 2.84197e-09, No Iterations 3
GAMGPCG:  Solving for G, Initial residual = 0.182528, Final residual = 4.2324e-05, No Iterations 6
DILUPBiCGStab:  Solving for O2, Initial residual = 0.00325533, Final residual = 1.52959e-09, No Iterations 3
DILUPBiCGStab:  Solving for H2O, Initial residual = 0.00325533, Final residual = 1.52959e-09, No Iterations 3
DILUPBiCGStab:  Solving for CH4, Initial residual = 0, Final residual = 0, No Iterations 0
DILUPBiCGStab:  Solving for CO2, Initial residual = 0.00325533, Final residual = 1.52959e-09, No Iterations 3
DILUPBiCGStab:  Solving for h, Initial residual = 0.0040043, Final residual = 1.37374e-09, No Iterations 3
min/max(T) = 300, 1044.94
GAMGPCG:  Solving for p_rgh, Initial residual = 0.0204074, Final residual = 5.66906e-07, No Iterations 4
diagonal:  Solving for rho, Initial residual = 0, Final residual = 0, No Iterations 0
time step continuity errors : sum local = 3.10394e-08, global = -9.84859e-10, cumulative = -2.10678e-07
GAMGPCG:  Solving for p_rgh, Initial residual = 0.00234065, Final residual = 1.93217e-07, No Iterations 4
diagonal:  Solving for rho, Initial residual = 0, Final residual = 0, No Iterations 0
time step continuity errors : sum local = 1.03742e-08, global = 1.64788e-10, cumulative = -2.10513e-07
DILUPBiCGStab:  Solving for omega, Initial residual = 0.000112407, Final residual = 7.75208e-10, No Iterations 2
DILUPBiCGStab:  Solving for k, Initial residual = 0.00711261, Final residual = 1.33823e-09, No Iterations 3

ExecutionTime = 5.46 s  ClockTime = 6 s

    Overall     = 0.00164082, 0.01
Time = 291

diagonal:  Solving for rho, Initial residual = 0, Final residual = 0, No Iterations 0

Execution time for mesh.update() = 0 s

DILUPBiCGStab:  Solving for Ux, Initial residual = 0.00614447, Final residual = 2.89337e-09, No Iterations 3
DILUPBiCGStab:  Solving for Uy, Initial residual = 0.00659443, Final residual = 2.76938e-09, No Iterations 3
DILUPBiCGStab:  Solving for O2, Initial residual = 0.00324357, Final residual = 1.8214e-09, No Iterations 3
DILUPBiCGStab:  Solving for H2O, Initial residual = 0.00324356, Final residual = 1.8214e-09, No Iterations 3
DILUPBiCGStab:  Solving for CH4, Initial residual = 0, Final residual = 0, No Iterations 0
DILUPBiCGStab:  Solving for CO2, Initial residual = 0.00324356, Final residual = 1.82139e-09, No Iterations 3
DILUPBiCGStab:  Solving for h, Initial residual = 0.00399461, Final residual = 1.55525e-09, No Iterations 3
min/max(T) = 300, 1044.94
GAMGPCG:  Solving for p_rgh, Initial residual = 0.0203827, Final residual = 5.65232e-07, No Iterations 4
diagonal:  Solving for rho, Initial residual = 0, Final residual = 0, No Iterations 0
time step continuity errors : sum local = 3.09334e-08, global = 3.74267e-09, cumulative = -2.0677e-07
GAMGPCG:  Solving for p_rgh, Initial residual = 0.00243469, Final residual = 9.14602e-07, No Iterations 3
diagonal:  Solving for rho, Initial residual = 0, Final residual = 0, No Iterations 0
time step continuity errors : sum local = 4.93218e-08, global = -3.38785e-09, cumulative = -2.10158e-07
DILUPBiCGStab:  Solving for omega, Initial residual = 0.00011291, Final residual = 8.44373e-10, No Iterations 2
DILUPBiCGStab:  Solving for k, Initial residual = 0.00713394, Final residual = 1.44711e-09, No Iterations 3

ExecutionTime = 5.57 s  ClockTime = 6 s

    Overall     = 0.0016103, 0.01
Time = 292

diagonal:  Solving for rho, Initial residual = 0, Final residual = 0, No Iterations 0

Execution time for mesh.update() = 0 s

DILUPBiCGStab:  Solving for Ux, Initial residual = 0.00616296, Final residual = 2.88661e-09, No Iterations 3
DILUPBiCGStab:  Solving for Uy, Initial residual = 0.00659785, Final residual = 3.27856e-09, No Iterations 3
DILUPBiCGStab:  Solving for O2, Initial residual = 0.00324687, Final residual = 1.77235e-09, No Iterations 3
DILUPBiCGStab:  Solving for H2O, Initial residual = 0.00324686, Final residual = 1.77234e-09, No Iterations 3
DILUPBiCGStab:  Solving for CH4, Initial residual = 0, Final residual = 0, No Iterations 0
DILUPBiCGStab:  Solving for CO2, Initial residual = 0.00324686, Final residual = 1.77234e-09, No Iterations 3
DILUPBiCGStab:  Solving for h, Initial residual = 0.00399923, Final residual = 1.63819e-09, No Iterations 3
min/max(T) = 300, 1044.94
GAMGPCG:  Solving for p_rgh, Initial residual = 0.0212916, Final residual = 6.63676e-07, No Iterations 4
diagonal:  Solving for rho, Initial residual = 0, Final residual = 0, No Iterations 0
time step continuity errors : sum local = 3.58269e-08, global = -3.14615e-09, cumulative = -2.13304e-07
GAMGPCG:  Solving for p_rgh, Initial residual = 0.00243045, Final residual = 2.14839e-07, No Iterations 4
diagonal:  Solving for rho, Initial residual = 0, Final residual = 0, No Iterations 0
time step continuity errors : sum local = 1.13335e-08, global = 2.5531e-10, cumulative = -2.13049e-07
DILUPBiCGStab:  Solving for omega, Initial residual = 0.000113222, Final residual = 8.89275e-10, No Iterations 2
DILUPBiCGStab:  Solving for k, Initial residual = 0.0071596, Final residual = 1.57911e-09, No Iterations 3

ExecutionTime = 5.68 s  ClockTime = 6 s

    Overall     = 0.00166327, 0.01
Time = 293

diagonal:  Solving for rho, Initial residual = 0, Final residual = 0, No Iterations 0

Execution time for mesh.update() = 0 s

[...]

Execution time for mesh.update() = 0 s

DILUPBiCGStab:  Solving for Ux, Initial residual = 0.00567859, Final residual = 6.58182e-09, No Iterations 3
DILUPBiCGStab:  Solving for Uy, Initial residual = 0.00469779, Final residual = 3.56086e-09, No Iterations 3
GAMGPCG:  Solving for G, Initial residual = 0.263369, Final residual = 4.72726e-05, No Iterations 6
DILUPBiCGStab:  Solving for O2, Initial residual = 0.00221725, Final residual = 4.55649e-09, No Iterations 3
DILUPBiCGStab:  Solving for H2O, Initial residual = 0.00221725, Final residual = 4.55649e-09, No Iterations 3
DILUPBiCGStab:  Solving for CH4, Initial residual = 0, Final residual = 0, No Iterations 0
DILUPBiCGStab:  Solving for CO2, Initial residual = 0.00221725, Final residual = 4.55649e-09, No Iterations 3
DILUPBiCGStab:  Solving for h, Initial residual = 0.0025248, Final residual = 3.58555e-09, No Iterations 3
min/max(T) = 300, 1044.94
GAMGPCG:  Solving for p_rgh, Initial residual = 0.0221935, Final residual = 1.89551e-07, No Iterations 5
diagonal:  Solving for rho, Initial residual = 0, Final residual = 0, No Iterations 0
time step continuity errors : sum local = 6.682e-09, global = 7.22058e-10, cumulative = 1.17621e-06
GAMGPCG:  Solving for p_rgh, Initial residual = 0.00354023, Final residual = 3.98179e-07, No Iterations 4
diagonal:  Solving for rho, Initial residual = 0, Final residual = 0, No Iterations 0
time step continuity errors : sum local = 1.32556e-08, global = 2.27382e-09, cumulative = 1.17848e-06
DILUPBiCGStab:  Solving for omega, Initial residual = 8.67997e-05, Final residual = 1.48085e-09, No Iterations 2
DILUPBiCGStab:  Solving for k, Initial residual = 0.00438442, Final residual = 3.62185e-09, No Iterations 3

ExecutionTime = 295.12 s  ClockTime = 295 s

    Overall     = 0.00118077, 0.01
Time = 2491

diagonal:  Solving for rho, Initial residual = 0, Final residual = 0, No Iterations 0

Execution time for mesh.update() = 0 s

DILUPBiCGStab:  Solving for Ux, Initial residual = 0.00564083, Final residual = 7.05174e-09, No Iterations 3
DILUPBiCGStab:  Solving for Uy, Initial residual = 0.00467271, Final residual = 3.26082e-09, No Iterations 3
DILUPBiCGStab:  Solving for O2, Initial residual = 0.00221834, Final residual = 3.6087e-09, No Iterations 3
DILUPBiCGStab:  Solving for H2O, Initial residual = 0.00221834, Final residual = 3.6087e-09, No Iterations 3
DILUPBiCGStab:  Solving for CH4, Initial residual = 0, Final residual = 0, No Iterations 0
DILUPBiCGStab:  Solving for CO2, Initial residual = 0.00221834, Final residual = 3.6087e-09, No Iterations 3
DILUPBiCGStab:  Solving for h, Initial residual = 0.00252851, Final residual = 3.41724e-09, No Iterations 3
min/max(T) = 300, 1044.94
GAMGPCG:  Solving for p_rgh, Initial residual = 0.0216669, Final residual = 1.81551e-07, No Iterations 5
diagonal:  Solving for rho, Initial residual = 0, Final residual = 0, No Iterations 0
time step continuity errors : sum local = 6.37345e-09, global = 8.80279e-10, cumulative = 1.17936e-06
GAMGPCG:  Solving for p_rgh, Initial residual = 0.00360421, Final residual = 3.75663e-07, No Iterations 4
diagonal:  Solving for rho, Initial residual = 0, Final residual = 0, No Iterations 0
time step continuity errors : sum local = 1.25456e-08, global = 2.12422e-09, cumulative = 1.18149e-06
DILUPBiCGStab:  Solving for omega, Initial residual = 8.94958e-05, Final residual = 1.48069e-09, No Iterations 2
DILUPBiCGStab:  Solving for k, Initial residual = 0.00446683, Final residual = 3.51464e-09, No Iterations 3

ExecutionTime = 295.24 s  ClockTime = 296 s

    Overall     = 0.00118278, 0.01
Time = 2492

diagonal:  Solving for rho, Initial residual = 0, Final residual = 0, No Iterations 0

Execution time for mesh.update() = 0 s

DILUPBiCGStab:  Solving for Ux, Initial residual = 0.0057001, Final residual = 7.03987e-09, No Iterations 3
DILUPBiCGStab:  Solving for Uy, Initial residual = 0.00469128, Final residual = 3.31388e-09, No Iterations 3
DILUPBiCGStab:  Solving for O2, Initial residual = 0.00220443, Final residual = 3.55484e-09, No Iterations 3
DILUPBiCGStab:  Solving for H2O, Initial residual = 0.00220443, Final residual = 3.55484e-09, No Iterations 3
DILUPBiCGStab:  Solving for CH4, Initial residual = 0, Final residual = 0, No Iterations 0
DILUPBiCGStab:  Solving for CO2, Initial residual = 0.00220443, Final residual = 3.55484e-09, No Iterations 3
DILUPBiCGStab:  Solving for h, Initial residual = 0.00250887, Final residual = 3.30708e-09, No Iterations 3
min/max(T) = 300, 1044.94
GAMGPCG:  Solving for p_rgh, Initial residual = 0.0215785, Final residual = 1.88596e-07, No Iterations 5
diagonal:  Solving for rho, Initial residual = 0, Final residual = 0, No Iterations 0
time step continuity errors : sum local = 6.44255e-09, global = -1.14549e-10, cumulative = 1.18137e-06
GAMGPCG:  Solving for p_rgh, Initial residual = 0.00362251, Final residual = 3.84498e-07, No Iterations 4
diagonal:  Solving for rho, Initial residual = 0, Final residual = 0, No Iterations 0
time step continuity errors : sum local = 1.28008e-08, global = 2.5359e-09, cumulative = 1.18391e-06
DILUPBiCGStab:  Solving for omega, Initial residual = 8.88515e-05, Final residual = 1.43778e-09, No Iterations 2
DILUPBiCGStab:  Solving for k, Initial residual = 0.00446113, Final residual = 3.57146e-09, No Iterations 3

ExecutionTime = 295.36 s  ClockTime = 296 s

    Overall     = 0.00118267, 0.01
Time = 2493

diagonal:  Solving for rho, Initial residual = 0, Final residual = 0, No Iterations 0

Execution time for mesh.update() = 0 s

DILUPBiCGStab:  Solving for Ux, Initial residual = 0.00566148, Final residual = 7.3458e-09, No Iterations 3
DILUPBiCGStab:  Solving for Uy, Initial residual = 0.00470879, Final residual = 3.51332e-09, No Iterations 3
DILUPBiCGStab:  Solving for O2, Initial residual = 0.00221585, Final residual = 3.39688e-09, No Iterations 3
DILUPBiCGStab:  Solving for H2O, Initial residual = 0.00221585, Final residual = 3.39688e-09, No Iterations 3
DILUPBiCGStab:  Solving for CH4, Initial residual = 0, Final residual = 0, No Iterations 0
DILUPBiCGStab:  Solving for CO2, Initial residual = 0.00221585, Final residual = 3.39688e-09, No Iterations 3
DILUPBiCGStab:  Solving for h, Initial residual = 0.00252619, Final residual = 3.15893e-09, No Iterations 3
min/max(T) = 300, 1044.94
GAMGPCG:  Solving for p_rgh, Initial residual = 0.0222669, Final residual = 1.76007e-07, No Iterations 5
diagonal:  Solving for rho, Initial residual = 0, Final residual = 0, No Iterations 0
time step continuity errors : sum local = 6.0502e-09, global = -3.90242e-10, cumulative = 1.18352e-06
GAMGPCG:  Solving for p_rgh, Initial residual = 0.00357838, Final residual = 3.57248e-07, No Iterations 4
diagonal:  Solving for rho, Initial residual = 0, Final residual = 0, No Iterations 0
time step continuity errors : sum local = 1.16978e-08, global = 1.39992e-09, cumulative = 1.18492e-06
DILUPBiCGStab:  Solving for omega, Initial residual = 8.91043e-05, Final residual = 1.3799e-09, No Iterations 2
DILUPBiCGStab:  Solving for k, Initial residual = 0.00444414, Final residual = 3.65633e-09, No Iterations 3

ExecutionTime = 295.48 s  ClockTime = 296 s

    Overall     = 0.00118529, 0.01
Time = 2494

diagonal:  Solving for rho, Initial residual = 0, Final residual = 0, No Iterations 0

Execution time for mesh.update() = 0 s

DILUPBiCGStab:  Solving for Ux, Initial residual = 0.00567612, Final residual = 7.10509e-09, No Iterations 3
DILUPBiCGStab:  Solving for Uy, Initial residual = 0.00469228, Final residual = 3.86053e-09, No Iterations 3
DILUPBiCGStab:  Solving for O2, Initial residual = 0.00219184, Final residual = 2.90869e-09, No Iterations 3
DILUPBiCGStab:  Solving for H2O, Initial residual = 0.00219184, Final residual = 2.90869e-09, No Iterations 3
DILUPBiCGStab:  Solving for CH4, Initial residual = 0, Final residual = 0, No Iterations 0
DILUPBiCGStab:  Solving for CO2, Initial residual = 0.00219184, Final residual = 2.90869e-09, No Iterations 3
DILUPBiCGStab:  Solving for h, Initial residual = 0.00250026, Final residual = 2.81233e-09, No Iterations 3
min/max(T) = 300, 1044.94
GAMGPCG:  Solving for p_rgh, Initial residual = 0.0208612, Final residual = 1.95246e-07, No Iterations 5
diagonal:  Solving for rho, Initial residual = 0, Final residual = 0, No Iterations 0
time step continuity errors : sum local = 6.6094e-09, global = -2.14459e-10, cumulative = 1.1847e-06
GAMGPCG:  Solving for p_rgh, Initial residual = 0.00368035, Final residual = 3.48234e-07, No Iterations 4
diagonal:  Solving for rho, Initial residual = 0, Final residual = 0, No Iterations 0
time step continuity errors : sum local = 1.15277e-08, global = 2.25502e-09, cumulative = 1.18696e-06
DILUPBiCGStab:  Solving for omega, Initial residual = 8.79309e-05, Final residual = 1.3066e-09, No Iterations 2
DILUPBiCGStab:  Solving for k, Initial residual = 0.00444216, Final residual = 3.40573e-09, No Iterations 3

ExecutionTime = 295.6 s  ClockTime = 296 s

    Overall     = 0.00118524, 0.01
Time = 2495

diagonal:  Solving for rho, Initial residual = 0, Final residual = 0, No Iterations 0

Execution time for mesh.update() = 0 s

DILUPBiCGStab:  Solving for Ux, Initial residual = 0.00562945, Final residual = 6.70736e-09, No Iterations 3
DILUPBiCGStab:  Solving for Uy, Initial residual = 0.00469778, Final residual = 4.06478e-09, No Iterations 3
DILUPBiCGStab:  Solving for O2, Initial residual = 0.00219751, Final residual = 2.66004e-09, No Iterations 3
DILUPBiCGStab:  Solving for H2O, Initial residual = 0.00219751, Final residual = 2.66004e-09, No Iterations 3
DILUPBiCGStab:  Solving for CH4, Initial residual = 0, Final residual = 0, No Iterations 0
DILUPBiCGStab:  Solving for CO2, Initial residual = 0.00219751, Final residual = 2.66004e-09, No Iterations 3
DILUPBiCGStab:  Solving for h, Initial residual = 0.00251104, Final residual = 2.66961e-09, No Iterations 3
min/max(T) = 300, 1044.94
GAMGPCG:  Solving for p_rgh, Initial residual = 0.0215501, Final residual = 2.09109e-07, No Iterations 5
diagonal:  Solving for rho, Initial residual = 0, Final residual = 0, No Iterations 0
time step continuity errors : sum local = 7.12495e-09, global = -3.19826e-10, cumulative = 1.18664e-06
GAMGPCG:  Solving for p_rgh, Initial residual = 0.00340571, Final residual = 4.0382e-07, No Iterations 4
diagonal:  Solving for rho, Initial residual = 0, Final residual = 0, No Iterations 0
time step continuity errors : sum local = 1.33252e-08, global = 2.516e-09, cumulative = 1.18915e-06
DILUPBiCGStab:  Solving for omega, Initial residual = 8.9666e-05, Final residual = 1.25891e-09, No Iterations 2
DILUPBiCGStab:  Solving for k, Initial residual = 0.0044779, Final residual = 3.53722e-09, No Iterations 3

ExecutionTime = 295.72 s  ClockTime = 296 s

    Overall     = 0.00118747, 0.01
Time = 2496

diagonal:  Solving for rho, Initial residual = 0, Final residual = 0, No Iterations 0

Execution time for mesh.update() = 0 s

DILUPBiCGStab:  Solving for Ux, Initial residual = 0.00566367, Final residual = 6.45507e-09, No Iterations 3
DILUPBiCGStab:  Solving for Uy, Initial residual = 0.00469006, Final residual = 4.44256e-09, No Iterations 3
DILUPBiCGStab:  Solving for O2, Initial residual = 0.00219595, Final residual = 2.15503e-09, No Iterations 3
DILUPBiCGStab:  Solving for H2O, Initial residual = 0.00219595, Final residual = 2.15503e-09, No Iterations 3
DILUPBiCGStab:  Solving for CH4, Initial residual = 0, Final residual = 0, No Iterations 0
DILUPBiCGStab:  Solving for CO2, Initial residual = 0.00219595, Final residual = 2.15503e-09, No Iterations 3
DILUPBiCGStab:  Solving for h, Initial residual = 0.00251204, Final residual = 2.16534e-09, No Iterations 3
min/max(T) = 300, 1044.94
GAMGPCG:  Solving for p_rgh, Initial residual = 0.0218703, Final residual = 2.07851e-07, No Iterations 5
diagonal:  Solving for rho, Initial residual = 0, Final residual = 0, No Iterations 0
time step continuity errors : sum local = 7.05924e-09, global = -5.18768e-10, cumulative = 1.18863e-06
GAMGPCG:  Solving for p_rgh, Initial residual = 0.00372508, Final residual = 3.56361e-07, No Iterations 4
diagonal:  Solving for rho, Initial residual = 0, Final residual = 0, No Iterations 0
time step continuity errors : sum local = 1.17842e-08, global = 1.96175e-09, cumulative = 1.1906e-06
DILUPBiCGStab:  Solving for omega, Initial residual = 9.20295e-05, Final residual = 1.23378e-09, No Iterations 2
DILUPBiCGStab:  Solving for k, Initial residual = 0.00450642, Final residual = 3.03314e-09, No Iterations 3

ExecutionTime = 295.84 s  ClockTime = 296 s

    Overall     = 0.00118716, 0.01
Time = 2497

diagonal:  Solving for rho, Initial residual = 0, Final residual = 0, No Iterations 0

Execution time for mesh.update() = 0 s

DILUPBiCGStab:  Solving for Ux, Initial residual = 0.00568557, Final residual = 6.60668e-09, No Iterations 3
DILUPBiCGStab:  Solving for Uy, Initial residual = 0.00475439, Final residual = 4.85208e-09, No Iterations 3
DILUPBiCGStab:  Solving for O2, Initial residual = 0.00221147, Final residual = 1.9778e-09, No Iterations 3
DILUPBiCGStab:  Solving for H2O, Initial residual = 0.00221147, Final residual = 1.9778e-09, No Iterations 3
DILUPBiCGStab:  Solving for CH4, Initial residual = 0, Final residual = 0, No Iterations 0
DILUPBiCGStab:  Solving for CO2, Initial residual = 0.00221147, Final residual = 1.9778e-09, No Iterations 3
DILUPBiCGStab:  Solving for h, Initial residual = 0.00253079, Final residual = 1.99144e-09, No Iterations 3
min/max(T) = 300, 1044.94
GAMGPCG:  Solving for p_rgh, Initial residual = 0.0221463, Final residual = 2.44779e-07, No Iterations 5
diagonal:  Solving for rho, Initial residual = 0, Final residual = 0, No Iterations 0
time step continuity errors : sum local = 8.02776e-09, global = -3.94882e-10, cumulative = 1.1902e-06
GAMGPCG:  Solving for p_rgh, Initial residual = 0.00352974, Final residual = 4.23731e-07, No Iterations 4
diagonal:  Solving for rho, Initial residual = 0, Final residual = 0, No Iterations 0
time step continuity errors : sum local = 1.37778e-08, global = 4.80608e-10, cumulative = 1.19068e-06
DILUPBiCGStab:  Solving for omega, Initial residual = 9.0963e-05, Final residual = 1.08054e-09, No Iterations 2
DILUPBiCGStab:  Solving for k, Initial residual = 0.00447152, Final residual = 3.07732e-09, No Iterations 3

ExecutionTime = 295.96 s  ClockTime = 296 s

    Overall     = 0.00118892, 0.01
Time = 2498

diagonal:  Solving for rho, Initial residual = 0, Final residual = 0, No Iterations 0

Execution time for mesh.update() = 0 s

DILUPBiCGStab:  Solving for Ux, Initial residual = 0.00569964, Final residual = 6.05652e-09, No Iterations 3
DILUPBiCGStab:  Solving for Uy, Initial residual = 0.00476713, Final residual = 4.8635e-09, No Iterations 3
DILUPBiCGStab:  Solving for O2, Initial residual = 0.00221114, Final residual = 1.94767e-09, No Iterations 3
DILUPBiCGStab:  Solving for H2O, Initial residual = 0.00221114, Final residual = 1.94767e-09, No Iterations 3
DILUPBiCGStab:  Solving for CH4, Initial residual = 0, Final residual = 0, No Iterations 0
DILUPBiCGStab:  Solving for CO2, Initial residual = 0.00221114, Final residual = 1.94767e-09, No Iterations 3
DILUPBiCGStab:  Solving for h, Initial residual = 0.00253358, Final residual = 1.86481e-09, No Iterations 3
min/max(T) = 300, 1044.94
GAMGPCG:  Solving for p_rgh, Initial residual = 0.023337, Final residual = 2.07346e-07, No Iterations 5
diagonal:  Solving for rho, Initial residual = 0, Final residual = 0, No Iterations 0
time step continuity errors : sum local = 6.97091e-09, global = -6.20667e-10, cumulative = 1.19006e-06
GAMGPCG:  Solving for p_rgh, Initial residual = 0.00374917, Final residual = 3.66642e-07, No Iterations 4
diagonal:  Solving for rho, Initial residual = 0, Final residual = 0, No Iterations 0
time step continuity errors : sum local = 1.1988e-08, global = -8.31589e-11, cumulative = 1.18998e-06
DILUPBiCGStab:  Solving for omega, Initial residual = 9.15913e-05, Final residual = 1.07413e-09, No Iterations 2
DILUPBiCGStab:  Solving for k, Initial residual = 0.00449537, Final residual = 2.60319e-09, No Iterations 3

ExecutionTime = 296.08 s  ClockTime = 296 s

    Overall     = 0.00118759, 0.01
Time = 2499

diagonal:  Solving for rho, Initial residual = 0, Final residual = 0, No Iterations 0

Execution time for mesh.update() = 0 s

DILUPBiCGStab:  Solving for Ux, Initial residual = 0.00574255, Final residual = 5.45411e-09, No Iterations 3
DILUPBiCGStab:  Solving for Uy, Initial residual = 0.00483339, Final residual = 5.37933e-09, No Iterations 3
DILUPBiCGStab:  Solving for O2, Initial residual = 0.00221412, Final residual = 1.9703e-09, No Iterations 3
DILUPBiCGStab:  Solving for H2O, Initial residual = 0.00221412, Final residual = 1.9703e-09, No Iterations 3
DILUPBiCGStab:  Solving for CH4, Initial residual = 0, Final residual = 0, No Iterations 0
DILUPBiCGStab:  Solving for CO2, Initial residual = 0.00221412, Final residual = 1.9703e-09, No Iterations 3
DILUPBiCGStab:  Solving for h, Initial residual = 0.00253623, Final residual = 1.91444e-09, No Iterations 3
min/max(T) = 300, 1044.94
GAMGPCG:  Solving for p_rgh, Initial residual = 0.0221589, Final residual = 2.36008e-07, No Iterations 5
diagonal:  Solving for rho, Initial residual = 0, Final residual = 0, No Iterations 0
time step continuity errors : sum local = 7.82965e-09, global = -4.11235e-10, cumulative = 1.18957e-06
GAMGPCG:  Solving for p_rgh, Initial residual = 0.00359207, Final residual = 4.35775e-07, No Iterations 4
diagonal:  Solving for rho, Initial residual = 0, Final residual = 0, No Iterations 0
time step continuity errors : sum local = 1.4089e-08, global = -8.26563e-10, cumulative = 1.18874e-06
DILUPBiCGStab:  Solving for omega, Initial residual = 9.14725e-05, Final residual = 1.07427e-09, No Iterations 2
DILUPBiCGStab:  Solving for k, Initial residual = 0.00447206, Final residual = 2.4486e-09, No Iterations 3

ExecutionTime = 296.2 s  ClockTime = 297 s

    Overall     = 0.00118797, 0.01
Time = 2500

diagonal:  Solving for rho, Initial residual = 0, Final residual = 0, No Iterations 0

Execution time for mesh.update() = 0 s

DILUPBiCGStab:  Solving for Ux, Initial residual = 0.00568259, Final residual = 4.46299e-09, No Iterations 3
DILUPBiCGStab:  Solving for Uy, Initial residual = 0.00479214, Final residual = 4.3579e-09, No Iterations 3
GAMGPCG:  Solving for G, Initial residual = 0.243125, Final residual = 6.47274e-05, No Iterations 6
DILUPBiCGStab:  Solving for O2, Initial residual = 0.00222324, Final residual = 1.98035e-09, No Iterations 3
DILUPBiCGStab:  Solving for H2O, Initial residual = 0.00222324, Final residual = 1.98035e-09, No Iterations 3
DILUPBiCGStab:  Solving for CH4, Initial residual = 0, Final residual = 0, No Iterations 0
DILUPBiCGStab:  Solving for CO2, Initial residual = 0.00222324, Final residual = 1.98035e-09, No Iterations 3
DILUPBiCGStab:  Solving for h, Initial residual = 0.0025568, Final residual = 1.95488e-09, No Iterations 3
min/max(T) = 300, 1044.94
GAMGPCG:  Solving for p_rgh, Initial residual = 0.0237062, Final residual = 1.97298e-07, No Iterations 5
diagonal:  Solving for rho, Initial residual = 0, Final residual = 0, No Iterations 0
time step continuity errors : sum local = 6.55873e-09, global = -8.5662e-10, cumulative = 1.18788e-06
GAMGPCG:  Solving for p_rgh, Initial residual = 0.00363394, Final residual = 4.10663e-07, No Iterations 4
diagonal:  Solving for rho, Initial residual = 0, Final residual = 0, No Iterations 0
time step continuity errors : sum local = 1.33139e-08, global = -1.00159e-09, cumulative = 1.18688e-06
DILUPBiCGStab:  Solving for omega, Initial residual = 9.4965e-05, Final residual = 1.18584e-09, No Iterations 2
DILUPBiCGStab:  Solving for k, Initial residual = 0.00450537, Final residual = 2.23066e-09, No Iterations 3

ExecutionTime = 296.45 s  ClockTime = 297 s


Patch Mean : 301.952
Patch Variance : 0.00194872
Patch Gradient : 0.136571
End
