/*---------------------------------------------------------------------------*\
  =========                 |
  \\      /  F ield         | OpenFOAM: The Open Source CFD Toolbox
   \\    /   O peration     | Website:  https://openfoam.org
    \\  /    A nd           | Version:  dev
     \\/     M anipulation  |
\*---------------------------------------------------------------------------*/
Build  : dev-cabe48fb62c1
Exec   : fireDyMFoam
Date   : Apr 15 2019
Time   : 13:51:21
Host   : "Host"
PID    : 6482
I/O    : uncollated
Case   : /home/tesla/OpenFOAM/tesla-dev/run/rollerOpt_COBYLA_NEW
nProcs : 1
sigFpe : Enabling floating point exception trapping (FOAM_SIGFPE).
fileModificationChecking : Monitoring run-time modified files using timeStampMaster (fileModificationSkew 10)
allowSystemOperations : Allowing user-supplied system call operations

// * * * * * * * * * * * * * * * * * * * * * * * * * * * * * * * * * * * * * //
Create time

--> FOAM Warning : 
    From function void* Foam::dlOpen(const Foam::fileName&, bool)
    in file POSIX.C at line 1268
    dlopen error : libgroovyBC.so: cannot open shared object file: No such file or directory
--> FOAM Warning : 
    From function bool Foam::dlLibraryTable::open(const Foam::fileName&, bool)
    in file db/dynamicLibrary/dlLibraryTable/dlLibraryTable.C at line 105
    could not load "libgroovyBC.so"
Create mesh for time = 250

Selecting dynamicFvMesh dynamicRefineFvMesh
Detected 539 cells that are protected from refinement. Writing these to cellSet protectedCells.

PIMPLE: No convergence criteria found


PIMPLE: Operating solver in PISO mode


Initializing Solver

Selecting thermodynamics package 
{
    type            hePsiThermo;
    mixture         reactingMixture;
    transport       sutherland;
    thermo          janaf;
    energy          sensibleEnthalpy;
    equationOfState perfectGas;
    specie          specie;
}

Selecting chemistryReader foamChemistryReader
    elements not defined in "/home/tesla/OpenFOAM/tesla-dev/run/rollerOpt_COBYLA_NEW/constant/reactions"
Reading/calculating face flux field phi

No MRF models present

Selecting turbulence model type RAS
Selecting RAS turbulence model kOmegaSST
Selecting patchDistMethod meshWave
kOmegaSSTCoeffs
{
    delta           cubeRootVol;
    cubeRootVolCoeffs
    {
        deltaCoeff      1;
    }
    alphaK1         0.85;
    alphaK2         1;
    alphaOmega1     0.5;
    alphaOmega2     0.856;
    gamma1          0.555556;
    gamma2          0.44;
    beta1           0.075;
    beta2           0.0828;
    betaStar        0.09;
    a1              0.31;
    b1              1;
    c1              10;
    F3              false;
}

Selecting combustion model none<psiThermoCombustion>
--> FOAM Warning : 
    From function static Foam::autoPtr<T> Foam::combustionModel::New(typename CombustionModel::reactionThermo&, const Foam::compressibleTurbulenceModel&, const Foam::word&) [with CombustionModel = Foam::CombustionModel<Foam::psiReactionThermo>; typename CombustionModel::reactionThermo = Foam::psiReactionThermo]
    in file /home/tesla/OpenFOAM/OpenFOAM-dev/src/combustionModels/lnInclude/combustionModelTemplates.C at line 69
    Template parameters are no longer required when selecting a combustionModel. This information is now obtained directly from the thermodynamics. Actually selecting combustion model none.

Reading g

Reading hRef
Calculating field g.h


Reading pRef
Selecting radiationModel P1
Selecting absorptionEmissionModel greyMeanAbsorptionEmission
Selecting scatterModel none
Selecting sootModel none
Creating finite volume options from "system/fvOptions"

No finite volume options present
Using LTS

Starting time loop

Using dynamicCode for functionObject patchCalcs at line 64 in "/home/tesla/OpenFOAM/tesla-dev/run/rollerOpt_COBYLA_NEW/system/controlDict.functions.patchCalcs"
    Overall     = 0.00137378, 0.01
Time = 251

diagonal:  Solving for rho, Initial residual = 0, Final residual = 0, No Iterations 0

Execution time for mesh.update() = 0 s

DILUPBiCGStab:  Solving for Ux, Initial residual = 0.0047594, Final residual = 4.18902e-09, No Iterations 3
DILUPBiCGStab:  Solving for Uy, Initial residual = 0.00793072, Final residual = 8.20205e-09, No Iterations 3
GAMGPCG:  Solving for G, Initial residual = 0.0269356, Final residual = 4.47379e-05, No Iterations 4
DILUPBiCGStab:  Solving for O2, Initial residual = 0.00259718, Final residual = 2.85857e-09, No Iterations 3
DILUPBiCGStab:  Solving for H2O, Initial residual = 0.00259714, Final residual = 2.858e-09, No Iterations 3
DILUPBiCGStab:  Solving for CH4, Initial residual = 0, Final residual = 0, No Iterations 0
DILUPBiCGStab:  Solving for CO2, Initial residual = 0.00259714, Final residual = 2.85793e-09, No Iterations 3
DILUPBiCGStab:  Solving for h, Initial residual = 0.00289601, Final residual = 2.94625e-09, No Iterations 3
min/max(T) = 300, 1044.97
GAMGPCG:  Solving for p_rgh, Initial residual = 0.0192027, Final residual = 5.9563e-07, No Iterations 4
diagonal:  Solving for rho, Initial residual = 0, Final residual = 0, No Iterations 0
time step continuity errors : sum local = 2.46878e-06, global = -1.43229e-07, cumulative = -1.43229e-07
GAMGPCG:  Solving for p_rgh, Initial residual = 0.00240153, Final residual = 1.97695e-07, No Iterations 4
diagonal:  Solving for rho, Initial residual = 0, Final residual = 0, No Iterations 0
time step continuity errors : sum local = 2.4655e-06, global = -1.39344e-07, cumulative = -2.82572e-07
DILUPBiCGStab:  Solving for omega, Initial residual = 0.000103619, Final residual = 1.73697e-09, No Iterations 2
DILUPBiCGStab:  Solving for k, Initial residual = 0.00499289, Final residual = 6.9347e-09, No Iterations 3

ExecutionTime = 0.38 s  ClockTime = 1 s

    Overall     = 0.00137408, 0.01
Time = 252

diagonal:  Solving for rho, Initial residual = 0, Final residual = 0, No Iterations 0

Execution time for mesh.update() = 0 s

DILUPBiCGStab:  Solving for Ux, Initial residual = 0.00476033, Final residual = 4.18641e-09, No Iterations 3
DILUPBiCGStab:  Solving for Uy, Initial residual = 0.00793624, Final residual = 7.87304e-09, No Iterations 3
DILUPBiCGStab:  Solving for O2, Initial residual = 0.00259593, Final residual = 2.98199e-09, No Iterations 3
DILUPBiCGStab:  Solving for H2O, Initial residual = 0.00259592, Final residual = 2.98171e-09, No Iterations 3
DILUPBiCGStab:  Solving for CH4, Initial residual = 0, Final residual = 0, No Iterations 0
DILUPBiCGStab:  Solving for CO2, Initial residual = 0.00259592, Final residual = 2.98172e-09, No Iterations 3
DILUPBiCGStab:  Solving for h, Initial residual = 0.00289459, Final residual = 3.08992e-09, No Iterations 3
min/max(T) = 300, 1044.97
GAMGPCG:  Solving for p_rgh, Initial residual = 0.0186714, Final residual = 5.00065e-07, No Iterations 4
diagonal:  Solving for rho, Initial residual = 0, Final residual = 0, No Iterations 0
time step continuity errors : sum local = 3.00704e-08, global = -1.79382e-09, cumulative = -2.84366e-07
GAMGPCG:  Solving for p_rgh, Initial residual = 0.00228073, Final residual = 1.89104e-07, No Iterations 4
diagonal:  Solving for rho, Initial residual = 0, Final residual = 0, No Iterations 0
time step continuity errors : sum local = 1.10278e-08, global = 6.2481e-10, cumulative = -2.83741e-07
DILUPBiCGStab:  Solving for omega, Initial residual = 0.000103216, Final residual = 1.75662e-09, No Iterations 2
DILUPBiCGStab:  Solving for k, Initial residual = 0.00499869, Final residual = 7.62287e-10, No Iterations 3

ExecutionTime = 0.49 s  ClockTime = 1 s

    Overall     = 0.0013741, 0.01
Time = 253

diagonal:  Solving for rho, Initial residual = 0, Final residual = 0, No Iterations 0

Execution time for mesh.update() = 0 s

DILUPBiCGStab:  Solving for Ux, Initial residual = 0.00475342, Final residual = 4.18187e-09, No Iterations 3
DILUPBiCGStab:  Solving for Uy, Initial residual = 0.00794942, Final residual = 7.28896e-09, No Iterations 3
DILUPBiCGStab:  Solving for O2, Initial residual = 0.00260429, Final residual = 2.95112e-09, No Iterations 3
DILUPBiCGStab:  Solving for H2O, Initial residual = 0.00260429, Final residual = 2.95115e-09, No Iterations 3
DILUPBiCGStab:  Solving for CH4, Initial residual = 0, Final residual = 0, No Iterations 0
DILUPBiCGStab:  Solving for CO2, Initial residual = 0.00260429, Final residual = 2.95112e-09, No Iterations 3
DILUPBiCGStab:  Solving for h, Initial residual = 0.00290511, Final residual = 2.87693e-09, No Iterations 3
min/max(T) = 300, 1044.97
GAMGPCG:  Solving for p_rgh, Initial residual = 0.0189232, Final residual = 6.15936e-07, No Iterations 4
diagonal:  Solving for rho, Initial residual = 0, Final residual = 0, No Iterations 0
time step continuity errors : sum local = 3.68036e-08, global = -3.19982e-09, cumulative = -2.86941e-07
GAMGPCG:  Solving for p_rgh, Initial residual = 0.00230971, Final residual = 2.1331e-07, No Iterations 4
diagonal:  Solving for rho, Initial residual = 0, Final residual = 0, No Iterations 0
time step continuity errors : sum local = 1.22204e-08, global = 8.86409e-10, cumulative = -2.86055e-07
DILUPBiCGStab:  Solving for omega, Initial residual = 0.000102547, Final residual = 1.57083e-09, No Iterations 2
DILUPBiCGStab:  Solving for k, Initial residual = 0.00500387, Final residual = 4.5389e-09, No Iterations 3

ExecutionTime = 0.61 s  ClockTime = 1 s

    Overall     = 0.00137603, 0.01
Time = 254

diagonal:  Solving for rho, Initial residual = 0, Final residual = 0, No Iterations 0

Execution time for mesh.update() = 0 s

DILUPBiCGStab:  Solving for Ux, Initial residual = 0.00478707, Final residual = 4.14146e-09, No Iterations 3
DILUPBiCGStab:  Solving for Uy, Initial residual = 0.00794073, Final residual = 7.2115e-09, No Iterations 3
DILUPBiCGStab:  Solving for O2, Initial residual = 0.0026086, Final residual = 2.84811e-09, No Iterations 3
DILUPBiCGStab:  Solving for H2O, Initial residual = 0.0026086, Final residual = 2.84821e-09, No Iterations 3
DILUPBiCGStab:  Solving for CH4, Initial residual = 0, Final residual = 0, No Iterations 0
DILUPBiCGStab:  Solving for CO2, Initial residual = 0.0026086, Final residual = 2.84818e-09, No Iterations 3
DILUPBiCGStab:  Solving for h, Initial residual = 0.00291871, Final residual = 2.64093e-09, No Iterations 3
min/max(T) = 300, 1044.97
GAMGPCG:  Solving for p_rgh, Initial residual = 0.0194147, Final residual = 4.44113e-07, No Iterations 4
diagonal:  Solving for rho, Initial residual = 0, Final residual = 0, No Iterations 0
time step continuity errors : sum local = 2.66376e-08, global = -5.23762e-10, cumulative = -2.86578e-07
GAMGPCG:  Solving for p_rgh, Initial residual = 0.00233831, Final residual = 1.96818e-07, No Iterations 4
diagonal:  Solving for rho, Initial residual = 0, Final residual = 0, No Iterations 0
time step continuity errors : sum local = 1.15919e-08, global = 8.17425e-10, cumulative = -2.85761e-07
DILUPBiCGStab:  Solving for omega, Initial residual = 0.000102376, Final residual = 1.53641e-09, No Iterations 2
DILUPBiCGStab:  Solving for k, Initial residual = 0.00500074, Final residual = 2.67985e-09, No Iterations 3

ExecutionTime = 0.73 s  ClockTime = 1 s

    Overall     = 0.00137758, 0.01
Time = 255

diagonal:  Solving for rho, Initial residual = 0, Final residual = 0, No Iterations 0

Execution time for mesh.update() = 0 s

DILUPBiCGStab:  Solving for Ux, Initial residual = 0.00478155, Final residual = 4.26403e-09, No Iterations 3
DILUPBiCGStab:  Solving for Uy, Initial residual = 0.00797202, Final residual = 6.81737e-09, No Iterations 3
DILUPBiCGStab:  Solving for O2, Initial residual = 0.00261469, Final residual = 2.36157e-09, No Iterations 3
DILUPBiCGStab:  Solving for H2O, Initial residual = 0.00261469, Final residual = 2.36167e-09, No Iterations 3
DILUPBiCGStab:  Solving for CH4, Initial residual = 0, Final residual = 0, No Iterations 0
DILUPBiCGStab:  Solving for CO2, Initial residual = 0.00261469, Final residual = 2.36165e-09, No Iterations 3
DILUPBiCGStab:  Solving for h, Initial residual = 0.00292193, Final residual = 2.14369e-09, No Iterations 3
min/max(T) = 300, 1044.97
GAMGPCG:  Solving for p_rgh, Initial residual = 0.0198159, Final residual = 6.23197e-07, No Iterations 4
diagonal:  Solving for rho, Initial residual = 0, Final residual = 0, No Iterations 0
time step continuity errors : sum local = 3.73772e-08, global = -3.57181e-09, cumulative = -2.89333e-07
GAMGPCG:  Solving for p_rgh, Initial residual = 0.00236205, Final residual = 1.84214e-07, No Iterations 4
diagonal:  Solving for rho, Initial residual = 0, Final residual = 0, No Iterations 0
time step continuity errors : sum local = 1.05043e-08, global = 1.11546e-09, cumulative = -2.88217e-07
DILUPBiCGStab:  Solving for omega, Initial residual = 0.000101846, Final residual = 1.37609e-09, No Iterations 2
DILUPBiCGStab:  Solving for k, Initial residual = 0.00499807, Final residual = 7.95206e-10, No Iterations 3

ExecutionTime = 0.84 s  ClockTime = 1 s

    Overall     = 0.00138087, 0.01
Time = 256

diagonal:  Solving for rho, Initial residual = 0, Final residual = 0, No Iterations 0

Execution time for mesh.update() = 0 s

DILUPBiCGStab:  Solving for Ux, Initial residual = 0.00479426, Final residual = 4.2853e-09, No Iterations 3
DILUPBiCGStab:  Solving for Uy, Initial residual = 0.00795198, Final residual = 6.35015e-09, No Iterations 3
DILUPBiCGStab:  Solving for O2, Initial residual = 0.00263551, Final residual = 2.23252e-09, No Iterations 3
DILUPBiCGStab:  Solving for H2O, Initial residual = 0.00263551, Final residual = 2.23256e-09, No Iterations 3
DILUPBiCGStab:  Solving for CH4, Initial residual = 0, Final residual = 0, No Iterations 0
DILUPBiCGStab:  Solving for CO2, Initial residual = 0.0026355, Final residual = 2.23256e-09, No Iterations 3
DILUPBiCGStab:  Solving for h, Initial residual = 0.00293932, Final residual = 2.02535e-09, No Iterations 3
min/max(T) = 300, 1044.97
GAMGPCG:  Solving for p_rgh, Initial residual = 0.0202699, Final residual = 4.29366e-07, No Iterations 4
diagonal:  Solving for rho, Initial residual = 0, Final residual = 0, No Iterations 0
time step continuity errors : sum local = 2.58317e-08, global = 2.53458e-10, cumulative = -2.87964e-07
GAMGPCG:  Solving for p_rgh, Initial residual = 0.00234701, Final residual = 1.80835e-07, No Iterations 4
diagonal:  Solving for rho, Initial residual = 0, Final residual = 0, No Iterations 0
time step continuity errors : sum local = 1.05504e-08, global = 7.8815e-10, cumulative = -2.87176e-07
DILUPBiCGStab:  Solving for omega, Initial residual = 0.000101502, Final residual = 1.34706e-09, No Iterations 2
DILUPBiCGStab:  Solving for k, Initial residual = 0.00499047, Final residual = 1.65667e-09, No Iterations 3

ExecutionTime = 0.96 s  ClockTime = 1 s

    Overall     = 0.00138357, 0.01
Time = 257

diagonal:  Solving for rho, Initial residual = 0, Final residual = 0, No Iterations 0

Execution time for mesh.update() = 0 s

DILUPBiCGStab:  Solving for Ux, Initial residual = 0.00482803, Final residual = 4.63597e-09, No Iterations 3
DILUPBiCGStab:  Solving for Uy, Initial residual = 0.00794851, Final residual = 6.12521e-09, No Iterations 3
DILUPBiCGStab:  Solving for O2, Initial residual = 0.00263477, Final residual = 2.14503e-09, No Iterations 3
DILUPBiCGStab:  Solving for H2O, Initial residual = 0.00263477, Final residual = 2.14505e-09, No Iterations 3
DILUPBiCGStab:  Solving for CH4, Initial residual = 0, Final residual = 0, No Iterations 0
DILUPBiCGStab:  Solving for CO2, Initial residual = 0.00263476, Final residual = 2.14505e-09, No Iterations 3
DILUPBiCGStab:  Solving for h, Initial residual = 0.00295058, Final residual = 2.06215e-09, No Iterations 3
min/max(T) = 300, 1044.97
GAMGPCG:  Solving for p_rgh, Initial residual = 0.0204768, Final residual = 6.7881e-07, No Iterations 4
diagonal:  Solving for rho, Initial residual = 0, Final residual = 0, No Iterations 0
time step continuity errors : sum local = 4.09078e-08, global = -2.16218e-09, cumulative = -2.89338e-07
GAMGPCG:  Solving for p_rgh, Initial residual = 0.00233683, Final residual = 8.91099e-07, No Iterations 3
diagonal:  Solving for rho, Initial residual = 0, Final residual = 0, No Iterations 0
time step continuity errors : sum local = 5.15195e-08, global = -3.74708e-09, cumulative = -2.93085e-07
DILUPBiCGStab:  Solving for omega, Initial residual = 0.000101907, Final residual = 1.25919e-09, No Iterations 2
DILUPBiCGStab:  Solving for k, Initial residual = 0.00499657, Final residual = 4.39382e-09, No Iterations 3

ExecutionTime = 1.08 s  ClockTime = 1 s

    Overall     = 0.00138908, 0.01
Time = 258

diagonal:  Solving for rho, Initial residual = 0, Final residual = 0, No Iterations 0

Execution time for mesh.update() = 0 s

DILUPBiCGStab:  Solving for Ux, Initial residual = 0.0048225, Final residual = 4.52512e-09, No Iterations 3
DILUPBiCGStab:  Solving for Uy, Initial residual = 0.00793073, Final residual = 6.04471e-09, No Iterations 3
DILUPBiCGStab:  Solving for O2, Initial residual = 0.00263545, Final residual = 2.14567e-09, No Iterations 3
DILUPBiCGStab:  Solving for H2O, Initial residual = 0.00263545, Final residual = 2.14567e-09, No Iterations 3
DILUPBiCGStab:  Solving for CH4, Initial residual = 0, Final residual = 0, No Iterations 0
DILUPBiCGStab:  Solving for CO2, Initial residual = 0.00263545, Final residual = 2.14567e-09, No Iterations 3
DILUPBiCGStab:  Solving for h, Initial residual = 0.00295124, Final residual = 2.11449e-09, No Iterations 3
min/max(T) = 300, 1044.97
GAMGPCG:  Solving for p_rgh, Initial residual = 0.0203831, Final residual = 4.28709e-07, No Iterations 4
diagonal:  Solving for rho, Initial residual = 0, Final residual = 0, No Iterations 0
time step continuity errors : sum local = 2.57777e-08, global = 1.04764e-09, cumulative = -2.92037e-07
GAMGPCG:  Solving for p_rgh, Initial residual = 0.00233496, Final residual = 1.20549e-07, No Iterations 4
diagonal:  Solving for rho, Initial residual = 0, Final residual = 0, No Iterations 0
time step continuity errors : sum local = 6.94138e-09, global = 9.07158e-10, cumulative = -2.9113e-07
DILUPBiCGStab:  Solving for omega, Initial residual = 0.000102262, Final residual = 1.32165e-09, No Iterations 2
DILUPBiCGStab:  Solving for k, Initial residual = 0.00499241, Final residual = 3.89923e-09, No Iterations 3

ExecutionTime = 1.19 s  ClockTime = 2 s

    Overall     = 0.00139329, 0.01
Time = 259

diagonal:  Solving for rho, Initial residual = 0, Final residual = 0, No Iterations 0

Execution time for mesh.update() = 0 s

DILUPBiCGStab:  Solving for Ux, Initial residual = 0.00484646, Final residual = 5.01981e-09, No Iterations 3
DILUPBiCGStab:  Solving for Uy, Initial residual = 0.00790246, Final residual = 5.94447e-09, No Iterations 3
DILUPBiCGStab:  Solving for O2, Initial residual = 0.00264197, Final residual = 2.24656e-09, No Iterations 3
DILUPBiCGStab:  Solving for H2O, Initial residual = 0.00264197, Final residual = 2.24658e-09, No Iterations 3
DILUPBiCGStab:  Solving for CH4, Initial residual = 0, Final residual = 0, No Iterations 0
DILUPBiCGStab:  Solving for CO2, Initial residual = 0.00264197, Final residual = 2.24657e-09, No Iterations 3
DILUPBiCGStab:  Solving for h, Initial residual = 0.00296194, Final residual = 2.23479e-09, No Iterations 3
min/max(T) = 300, 1044.97
GAMGPCG:  Solving for p_rgh, Initial residual = 0.0206788, Final residual = 7.35272e-07, No Iterations 4
diagonal:  Solving for rho, Initial residual = 0, Final residual = 0, No Iterations 0
time step continuity errors : sum local = 4.42278e-08, global = -2.13765e-10, cumulative = -2.91344e-07
GAMGPCG:  Solving for p_rgh, Initial residual = 0.00232446, Final residual = 9.48273e-07, No Iterations 3
diagonal:  Solving for rho, Initial residual = 0, Final residual = 0, No Iterations 0
time step continuity errors : sum local = 5.45079e-08, global = -4.68473e-09, cumulative = -2.96029e-07
DILUPBiCGStab:  Solving for omega, Initial residual = 0.000101212, Final residual = 1.37886e-09, No Iterations 2
DILUPBiCGStab:  Solving for k, Initial residual = 0.00497527, Final residual = 2.92864e-09, No Iterations 3

ExecutionTime = 1.31 s  ClockTime = 2 s

    Overall     = 0.00140078, 0.01
Time = 260

diagonal:  Solving for rho, Initial residual = 0, Final residual = 0, No Iterations 0

Execution time for mesh.update() = 0 s

DILUPBiCGStab:  Solving for Ux, Initial residual = 0.00487648, Final residual = 4.91996e-09, No Iterations 3
DILUPBiCGStab:  Solving for Uy, Initial residual = 0.0079173, Final residual = 5.93246e-09, No Iterations 3
GAMGPCG:  Solving for G, Initial residual = 0.134595, Final residual = 3.60945e-05, No Iterations 6
DILUPBiCGStab:  Solving for O2, Initial residual = 0.00264852, Final residual = 2.34871e-09, No Iterations 3
DILUPBiCGStab:  Solving for H2O, Initial residual = 0.00264852, Final residual = 2.34872e-09, No Iterations 3
DILUPBiCGStab:  Solving for CH4, Initial residual = 0, Final residual = 0, No Iterations 0
DILUPBiCGStab:  Solving for CO2, Initial residual = 0.00264852, Final residual = 2.34872e-09, No Iterations 3
DILUPBiCGStab:  Solving for h, Initial residual = 0.00297026, Final residual = 2.41289e-09, No Iterations 3
min/max(T) = 300, 1044.97
GAMGPCG:  Solving for p_rgh, Initial residual = 0.0208514, Final residual = 4.43856e-07, No Iterations 4
diagonal:  Solving for rho, Initial residual = 0, Final residual = 0, No Iterations 0
time step continuity errors : sum local = 2.65472e-08, global = 1.22471e-09, cumulative = -2.94804e-07
GAMGPCG:  Solving for p_rgh, Initial residual = 0.00240937, Final residual = 9.43982e-07, No Iterations 3
diagonal:  Solving for rho, Initial residual = 0, Final residual = 0, No Iterations 0
time step continuity errors : sum local = 5.34501e-08, global = -4.31684e-09, cumulative = -2.99121e-07
DILUPBiCGStab:  Solving for omega, Initial residual = 0.000101512, Final residual = 1.54256e-09, No Iterations 2
DILUPBiCGStab:  Solving for k, Initial residual = 0.00498827, Final residual = 2.73156e-09, No Iterations 3

ExecutionTime = 1.56 s  ClockTime = 2 s

    Overall     = 0.00140591, 0.01
Time = 261

diagonal:  Solving for rho, Initial residual = 0, Final residual = 0, No Iterations 0

Execution time for mesh.update() = 0 s

DILUPBiCGStab:  Solving for Ux, Initial residual = 0.00490297, Final residual = 5.30671e-09, No Iterations 3
DILUPBiCGStab:  Solving for Uy, Initial residual = 0.00791202, Final residual = 5.63603e-09, No Iterations 3
DILUPBiCGStab:  Solving for O2, Initial residual = 0.00264967, Final residual = 2.3702e-09, No Iterations 3
DILUPBiCGStab:  Solving for H2O, Initial residual = 0.00264967, Final residual = 2.37023e-09, No Iterations 3
DILUPBiCGStab:  Solving for CH4, Initial residual = 0, Final residual = 0, No Iterations 0
DILUPBiCGStab:  Solving for CO2, Initial residual = 0.00264967, Final residual = 2.37022e-09, No Iterations 3
DILUPBiCGStab:  Solving for h, Initial residual = 0.00298214, Final residual = 2.41595e-09, No Iterations 3
min/max(T) = 300, 1044.97
GAMGPCG:  Solving for p_rgh, Initial residual = 0.0210953, Final residual = 7.44281e-07, No Iterations 4
diagonal:  Solving for rho, Initial residual = 0, Final residual = 0, No Iterations 0
time step continuity errors : sum local = 4.41759e-08, global = 6.47378e-10, cumulative = -2.98473e-07
GAMGPCG:  Solving for p_rgh, Initial residual = 0.00242769, Final residual = 9.38679e-07, No Iterations 3
diagonal:  Solving for rho, Initial residual = 0, Final residual = 0, No Iterations 0
time step continuity errors : sum local = 5.37774e-08, global = -4.67716e-09, cumulative = -3.03151e-07
DILUPBiCGStab:  Solving for omega, Initial residual = 0.000101039, Final residual = 1.68775e-09, No Iterations 2
DILUPBiCGStab:  Solving for k, Initial residual = 0.00499315, Final residual = 2.70739e-09, No Iterations 3

ExecutionTime = 1.67 s  ClockTime = 2 s

    Overall     = 0.00141617, 0.01
Time = 262

diagonal:  Solving for rho, Initial residual = 0, Final residual = 0, No Iterations 0

Execution time for mesh.update() = 0 s

DILUPBiCGStab:  Solving for Ux, Initial residual = 0.00491572, Final residual = 5.41565e-09, No Iterations 3
DILUPBiCGStab:  Solving for Uy, Initial residual = 0.00789248, Final residual = 5.86782e-09, No Iterations 3
DILUPBiCGStab:  Solving for O2, Initial residual = 0.00266412, Final residual = 2.38136e-09, No Iterations 3
DILUPBiCGStab:  Solving for H2O, Initial residual = 0.00266412, Final residual = 2.38137e-09, No Iterations 3
DILUPBiCGStab:  Solving for CH4, Initial residual = 0, Final residual = 0, No Iterations 0
DILUPBiCGStab:  Solving for CO2, Initial residual = 0.00266412, Final residual = 2.38137e-09, No Iterations 3
DILUPBiCGStab:  Solving for h, Initial residual = 0.00299672, Final residual = 2.48651e-09, No Iterations 3
min/max(T) = 300, 1044.97
GAMGPCG:  Solving for p_rgh, Initial residual = 0.0212504, Final residual = 3.95054e-07, No Iterations 4
diagonal:  Solving for rho, Initial residual = 0, Final residual = 0, No Iterations 0
time step continuity errors : sum local = 2.33365e-08, global = 1.14607e-09, cumulative = -3.02005e-07
GAMGPCG:  Solving for p_rgh, Initial residual = 0.00242757, Final residual = 9.02861e-07, No Iterations 3
diagonal:  Solving for rho, Initial residual = 0, Final residual = 0, No Iterations 0
time step continuity errors : sum local = 5.11994e-08, global = -3.75121e-09, cumulative = -3.05756e-07
DILUPBiCGStab:  Solving for omega, Initial residual = 0.000102214, Final residual = 1.82317e-09, No Iterations 2
DILUPBiCGStab:  Solving for k, Initial residual = 0.00500328, Final residual = 3.36433e-09, No Iterations 3

ExecutionTime = 1.78 s  ClockTime = 2 s

    Overall     = 0.001423, 0.01
Time = 263

diagonal:  Solving for rho, Initial residual = 0, Final residual = 0, No Iterations 0

Execution time for mesh.update() = 0 s

DILUPBiCGStab:  Solving for Ux, Initial residual = 0.00495078, Final residual = 5.4242e-09, No Iterations 3
DILUPBiCGStab:  Solving for Uy, Initial residual = 0.00790131, Final residual = 6.28818e-09, No Iterations 3
DILUPBiCGStab:  Solving for O2, Initial residual = 0.00266477, Final residual = 2.59568e-09, No Iterations 3
DILUPBiCGStab:  Solving for H2O, Initial residual = 0.00266476, Final residual = 2.59569e-09, No Iterations 3
DILUPBiCGStab:  Solving for CH4, Initial residual = 0, Final residual = 0, No Iterations 0
DILUPBiCGStab:  Solving for CO2, Initial residual = 0.00266476, Final residual = 2.59569e-09, No Iterations 3
DILUPBiCGStab:  Solving for h, Initial residual = 0.00300106, Final residual = 2.70109e-09, No Iterations 3
min/max(T) = 300, 1044.97
GAMGPCG:  Solving for p_rgh, Initial residual = 0.0218516, Final residual = 8.02555e-07, No Iterations 4
diagonal:  Solving for rho, Initial residual = 0, Final residual = 0, No Iterations 0
time step continuity errors : sum local = 4.68055e-08, global = 2.37125e-09, cumulative = -3.03385e-07
GAMGPCG:  Solving for p_rgh, Initial residual = 0.00252434, Final residual = 9.59562e-07, No Iterations 3
diagonal:  Solving for rho, Initial residual = 0, Final residual = 0, No Iterations 0
time step continuity errors : sum local = 5.42577e-08, global = -3.0484e-09, cumulative = -3.06433e-07
DILUPBiCGStab:  Solving for omega, Initial residual = 0.000102248, Final residual = 1.89315e-09, No Iterations 2
DILUPBiCGStab:  Solving for k, Initial residual = 0.00499529, Final residual = 3.99872e-09, No Iterations 3

ExecutionTime = 1.9 s  ClockTime = 2 s

    Overall     = 0.00143628, 0.01
Time = 264

diagonal:  Solving for rho, Initial residual = 0, Final residual = 0, No Iterations 0

Execution time for mesh.update() = 0 s

DILUPBiCGStab:  Solving for Ux, Initial residual = 0.00497064, Final residual = 5.28951e-09, No Iterations 3
DILUPBiCGStab:  Solving for Uy, Initial residual = 0.00792032, Final residual = 6.39688e-09, No Iterations 3
DILUPBiCGStab:  Solving for O2, Initial residual = 0.00266686, Final residual = 2.67148e-09, No Iterations 3
DILUPBiCGStab:  Solving for H2O, Initial residual = 0.00266686, Final residual = 2.67147e-09, No Iterations 3
DILUPBiCGStab:  Solving for CH4, Initial residual = 0, Final residual = 0, No Iterations 0
DILUPBiCGStab:  Solving for CO2, Initial residual = 0.00266686, Final residual = 2.67147e-09, No Iterations 3
DILUPBiCGStab:  Solving for h, Initial residual = 0.00300376, Final residual = 2.80225e-09, No Iterations 3
min/max(T) = 300, 1044.97
GAMGPCG:  Solving for p_rgh, Initial residual = 0.0222086, Final residual = 3.62476e-07, No Iterations 4
diagonal:  Solving for rho, Initial residual = 0, Final residual = 0, No Iterations 0
time step continuity errors : sum local = 2.10144e-08, global = 7.85492e-11, cumulative = -3.06354e-07
GAMGPCG:  Solving for p_rgh, Initial residual = 0.00252873, Final residual = 9.14e-07, No Iterations 3
diagonal:  Solving for rho, Initial residual = 0, Final residual = 0, No Iterations 0
time step continuity errors : sum local = 5.13779e-08, global = -2.37857e-09, cumulative = -3.08733e-07
DILUPBiCGStab:  Solving for omega, Initial residual = 0.000101686, Final residual = 1.94361e-09, No Iterations 2
DILUPBiCGStab:  Solving for k, Initial residual = 0.00500027, Final residual = 4.61162e-09, No Iterations 3

ExecutionTime = 2.01 s  ClockTime = 2 s

    Overall     = 0.00144497, 0.01
Time = 265

diagonal:  Solving for rho, Initial residual = 0, Final residual = 0, No Iterations 0

Execution time for mesh.update() = 0 s

DILUPBiCGStab:  Solving for Ux, Initial residual = 0.00502658, Final residual = 5.3902e-09, No Iterations 3
DILUPBiCGStab:  Solving for Uy, Initial residual = 0.0079309, Final residual = 7.31976e-09, No Iterations 3
DILUPBiCGStab:  Solving for O2, Initial residual = 0.0026702, Final residual = 2.95848e-09, No Iterations 3
DILUPBiCGStab:  Solving for H2O, Initial residual = 0.0026702, Final residual = 2.95846e-09, No Iterations 3
DILUPBiCGStab:  Solving for CH4, Initial residual = 0, Final residual = 0, No Iterations 0
DILUPBiCGStab:  Solving for CO2, Initial residual = 0.0026702, Final residual = 2.95845e-09, No Iterations 3
DILUPBiCGStab:  Solving for h, Initial residual = 0.00301617, Final residual = 3.11409e-09, No Iterations 3
min/max(T) = 300, 1044.97
GAMGPCG:  Solving for p_rgh, Initial residual = 0.0226046, Final residual = 7.39347e-07, No Iterations 4
diagonal:  Solving for rho, Initial residual = 0, Final residual = 0, No Iterations 0
time step continuity errors : sum local = 4.28903e-08, global = 3.7387e-10, cumulative = -3.08359e-07
GAMGPCG:  Solving for p_rgh, Initial residual = 0.00261323, Final residual = 7.33904e-07, No Iterations 3
diagonal:  Solving for rho, Initial residual = 0, Final residual = 0, No Iterations 0
time step continuity errors : sum local = 4.10209e-08, global = -2.171e-09, cumulative = -3.1053e-07
DILUPBiCGStab:  Solving for omega, Initial residual = 0.000101429, Final residual = 1.97265e-09, No Iterations 2
DILUPBiCGStab:  Solving for k, Initial residual = 0.005006, Final residual = 5.06022e-09, No Iterations 3

ExecutionTime = 2.13 s  ClockTime = 3 s

    Overall     = 0.00145849, 0.01
Time = 266

diagonal:  Solving for rho, Initial residual = 0, Final residual = 0, No Iterations 0

Execution time for mesh.update() = 0 s

DILUPBiCGStab:  Solving for Ux, Initial residual = 0.00502688, Final residual = 5.65594e-09, No Iterations 3
DILUPBiCGStab:  Solving for Uy, Initial residual = 0.00791551, Final residual = 7.16218e-09, No Iterations 3
DILUPBiCGStab:  Solving for O2, Initial residual = 0.00266153, Final residual = 3.40662e-09, No Iterations 3
DILUPBiCGStab:  Solving for H2O, Initial residual = 0.00266153, Final residual = 3.40656e-09, No Iterations 3
DILUPBiCGStab:  Solving for CH4, Initial residual = 0, Final residual = 0, No Iterations 0
DILUPBiCGStab:  Solving for CO2, Initial residual = 0.00266153, Final residual = 3.40656e-09, No Iterations 3
DILUPBiCGStab:  Solving for h, Initial residual = 0.00300597, Final residual = 3.57163e-09, No Iterations 3
min/max(T) = 300, 1044.97
GAMGPCG:  Solving for p_rgh, Initial residual = 0.0226302, Final residual = 3.85909e-07, No Iterations 4
diagonal:  Solving for rho, Initial residual = 0, Final residual = 0, No Iterations 0
time step continuity errors : sum local = 2.24225e-08, global = 4.36322e-10, cumulative = -3.10094e-07
GAMGPCG:  Solving for p_rgh, Initial residual = 0.0025316, Final residual = 8.11006e-08, No Iterations 4
diagonal:  Solving for rho, Initial residual = 0, Final residual = 0, No Iterations 0
time step continuity errors : sum local = 4.65737e-09, global = 5.26921e-10, cumulative = -3.09567e-07
DILUPBiCGStab:  Solving for omega, Initial residual = 0.000101962, Final residual = 2.03774e-09, No Iterations 2
DILUPBiCGStab:  Solving for k, Initial residual = 0.0050169, Final residual = 5.3196e-09, No Iterations 3

ExecutionTime = 2.24 s  ClockTime = 3 s

    Overall     = 0.00147052, 0.01
Time = 267

diagonal:  Solving for rho, Initial residual = 0, Final residual = 0, No Iterations 0

Execution time for mesh.update() = 0 s

DILUPBiCGStab:  Solving for Ux, Initial residual = 0.00507438, Final residual = 5.53375e-09, No Iterations 3
DILUPBiCGStab:  Solving for Uy, Initial residual = 0.00791974, Final residual = 7.6771e-09, No Iterations 3
DILUPBiCGStab:  Solving for O2, Initial residual = 0.00267088, Final residual = 2.48088e-09, No Iterations 3
DILUPBiCGStab:  Solving for H2O, Initial residual = 0.00267087, Final residual = 2.48086e-09, No Iterations 3
DILUPBiCGStab:  Solving for CH4, Initial residual = 0, Final residual = 0, No Iterations 0
DILUPBiCGStab:  Solving for CO2, Initial residual = 0.00267087, Final residual = 2.48086e-09, No Iterations 3
DILUPBiCGStab:  Solving for h, Initial residual = 0.00301742, Final residual = 2.88273e-09, No Iterations 3
min/max(T) = 300, 1044.97
GAMGPCG:  Solving for p_rgh, Initial residual = 0.0225353, Final residual = 6.85351e-07, No Iterations 4
diagonal:  Solving for rho, Initial residual = 0, Final residual = 0, No Iterations 0
time step continuity errors : sum local = 3.95515e-08, global = 1.31473e-09, cumulative = -3.08252e-07
GAMGPCG:  Solving for p_rgh, Initial residual = 0.00264991, Final residual = 9.0556e-07, No Iterations 3
diagonal:  Solving for rho, Initial residual = 0, Final residual = 0, No Iterations 0
time step continuity errors : sum local = 5.00267e-08, global = -3.38545e-10, cumulative = -3.08591e-07
DILUPBiCGStab:  Solving for omega, Initial residual = 0.000101596, Final residual = 1.99912e-09, No Iterations 2
DILUPBiCGStab:  Solving for k, Initial residual = 0.00501453, Final residual = 6.60252e-09, No Iterations 3

ExecutionTime = 2.36 s  ClockTime = 3 s

    Overall     = 0.00148325, 0.01
Time = 268

diagonal:  Solving for rho, Initial residual = 0, Final residual = 0, No Iterations 0

Execution time for mesh.update() = 0 s

DILUPBiCGStab:  Solving for Ux, Initial residual = 0.00508599, Final residual = 5.80988e-09, No Iterations 3
DILUPBiCGStab:  Solving for Uy, Initial residual = 0.00790935, Final residual = 7.9143e-09, No Iterations 3
DILUPBiCGStab:  Solving for O2, Initial residual = 0.00267143, Final residual = 2.64205e-09, No Iterations 3
DILUPBiCGStab:  Solving for H2O, Initial residual = 0.00267142, Final residual = 2.64204e-09, No Iterations 3
DILUPBiCGStab:  Solving for CH4, Initial residual = 0, Final residual = 0, No Iterations 0
DILUPBiCGStab:  Solving for CO2, Initial residual = 0.00267142, Final residual = 2.64204e-09, No Iterations 3
DILUPBiCGStab:  Solving for h, Initial residual = 0.00301997, Final residual = 2.87598e-09, No Iterations 3
min/max(T) = 299.998, 1044.97
GAMGPCG:  Solving for p_rgh, Initial residual = 0.0230216, Final residual = 4.26111e-07, No Iterations 4
diagonal:  Solving for rho, Initial residual = 0, Final residual = 0, No Iterations 0
time step continuity errors : sum local = 2.46943e-08, global = 1.1191e-09, cumulative = -3.07472e-07
GAMGPCG:  Solving for p_rgh, Initial residual = 0.00259743, Final residual = 8.44578e-08, No Iterations 4
diagonal:  Solving for rho, Initial residual = 0, Final residual = 0, No Iterations 0
time step continuity errors : sum local = 4.82657e-09, global = 3.60812e-10, cumulative = -3.07111e-07
DILUPBiCGStab:  Solving for omega, Initial residual = 0.000101709, Final residual = 1.85565e-09, No Iterations 2
DILUPBiCGStab:  Solving for k, Initial residual = 0.00503367, Final residual = 8.45527e-09, No Iterations 3

ExecutionTime = 2.47 s  ClockTime = 3 s

    Overall     = 0.00149712, 0.01
Time = 269

diagonal:  Solving for rho, Initial residual = 0, Final residual = 0, No Iterations 0

Execution time for mesh.update() = 0 s

DILUPBiCGStab:  Solving for Ux, Initial residual = 0.00509867, Final residual = 5.88894e-09, No Iterations 3
DILUPBiCGStab:  Solving for Uy, Initial residual = 0.00790411, Final residual = 8.92851e-09, No Iterations 3
DILUPBiCGStab:  Solving for O2, Initial residual = 0.00268154, Final residual = 2.11051e-09, No Iterations 3
DILUPBiCGStab:  Solving for H2O, Initial residual = 0.00268153, Final residual = 2.11051e-09, No Iterations 3
DILUPBiCGStab:  Solving for CH4, Initial residual = 0, Final residual = 0, No Iterations 0
DILUPBiCGStab:  Solving for CO2, Initial residual = 0.00268153, Final residual = 2.11051e-09, No Iterations 3
DILUPBiCGStab:  Solving for h, Initial residual = 0.00304121, Final residual = 2.38239e-09, No Iterations 3
min/max(T) = 299.995, 1044.97
GAMGPCG:  Solving for p_rgh, Initial residual = 0.0231922, Final residual = 5.25473e-07, No Iterations 4
diagonal:  Solving for rho, Initial residual = 0, Final residual = 0, No Iterations 0
time step continuity errors : sum local = 3.03326e-08, global = -6.57646e-10, cumulative = -3.07768e-07
GAMGPCG:  Solving for p_rgh, Initial residual = 0.00259247, Final residual = 1.04922e-07, No Iterations 4
diagonal:  Solving for rho, Initial residual = 0, Final residual = 0, No Iterations 0
time step continuity errors : sum local = 6.00839e-09, global = 9.74324e-11, cumulative = -3.07671e-07
DILUPBiCGStab:  Solving for omega, Initial residual = 0.000102224, Final residual = 1.63416e-09, No Iterations 2
DILUPBiCGStab:  Solving for k, Initial residual = 0.00503552, Final residual = 1.95909e-09, No Iterations 3

ExecutionTime = 2.59 s  ClockTime = 3 s

    Overall     = 0.00150923, 0.01
Time = 270

diagonal:  Solving for rho, Initial residual = 0, Final residual = 0, No Iterations 0

Execution time for mesh.update() = 0 s

DILUPBiCGStab:  Solving for Ux, Initial residual = 0.00510163, Final residual = 5.66687e-09, No Iterations 3
DILUPBiCGStab:  Solving for Uy, Initial residual = 0.00788925, Final residual = 9.85902e-09, No Iterations 3
GAMGPCG:  Solving for G, Initial residual = 0.179677, Final residual = 6.02697e-05, No Iterations 6
DILUPBiCGStab:  Solving for O2, Initial residual = 0.00267885, Final residual = 2.14844e-09, No Iterations 3
DILUPBiCGStab:  Solving for H2O, Initial residual = 0.00267885, Final residual = 2.14844e-09, No Iterations 3
DILUPBiCGStab:  Solving for CH4, Initial residual = 0, Final residual = 0, No Iterations 0
DILUPBiCGStab:  Solving for CO2, Initial residual = 0.00267885, Final residual = 2.14844e-09, No Iterations 3
DILUPBiCGStab:  Solving for h, Initial residual = 0.00303758, Final residual = 2.43771e-09, No Iterations 3
min/max(T) = 299.987, 1044.97
GAMGPCG:  Solving for p_rgh, Initial residual = 0.0233246, Final residual = 5.67477e-07, No Iterations 4
diagonal:  Solving for rho, Initial residual = 0, Final residual = 0, No Iterations 0
time step continuity errors : sum local = 3.26252e-08, global = 2.13522e-09, cumulative = -3.05536e-07
GAMGPCG:  Solving for p_rgh, Initial residual = 0.00265036, Final residual = 9.4695e-08, No Iterations 4
diagonal:  Solving for rho, Initial residual = 0, Final residual = 0, No Iterations 0
time step continuity errors : sum local = 5.33363e-09, global = -2.13694e-11, cumulative = -3.05557e-07
DILUPBiCGStab:  Solving for omega, Initial residual = 0.000102492, Final residual = 1.54218e-09, No Iterations 2
DILUPBiCGStab:  Solving for k, Initial residual = 0.005027, Final residual = 1.26805e-09, No Iterations 3

ExecutionTime = 2.84 s  ClockTime = 3 s

    Overall     = 0.00152637, 0.01
Time = 271

diagonal:  Solving for rho, Initial residual = 0, Final residual = 0, No Iterations 0

Execution time for mesh.update() = 0 s

DILUPBiCGStab:  Solving for Ux, Initial residual = 0.00512138, Final residual = 5.55875e-09, No Iterations 3
DILUPBiCGStab:  Solving for Uy, Initial residual = 0.00788381, Final residual = 9.84384e-09, No Iterations 3
DILUPBiCGStab:  Solving for O2, Initial residual = 0.00268813, Final residual = 1.78184e-09, No Iterations 3
DILUPBiCGStab:  Solving for H2O, Initial residual = 0.00268814, Final residual = 1.78184e-09, No Iterations 3
DILUPBiCGStab:  Solving for CH4, Initial residual = 0, Final residual = 0, No Iterations 0
DILUPBiCGStab:  Solving for CO2, Initial residual = 0.00268814, Final residual = 1.78184e-09, No Iterations 3
DILUPBiCGStab:  Solving for h, Initial residual = 0.00305791, Final residual = 1.83075e-09, No Iterations 3
min/max(T) = 299.983, 1044.97
GAMGPCG:  Solving for p_rgh, Initial residual = 0.0231824, Final residual = 4.55184e-07, No Iterations 4
diagonal:  Solving for rho, Initial residual = 0, Final residual = 0, No Iterations 0
time step continuity errors : sum local = 2.59002e-08, global = 8.35046e-11, cumulative = -3.05474e-07
GAMGPCG:  Solving for p_rgh, Initial residual = 0.00258232, Final residual = 1.26838e-07, No Iterations 4
diagonal:  Solving for rho, Initial residual = 0, Final residual = 0, No Iterations 0
time step continuity errors : sum local = 7.29803e-09, global = -3.24704e-10, cumulative = -3.05798e-07
DILUPBiCGStab:  Solving for omega, Initial residual = 0.000103899, Final residual = 1.47937e-09, No Iterations 2
DILUPBiCGStab:  Solving for k, Initial residual = 0.00503093, Final residual = 8.84635e-09, No Iterations 3

ExecutionTime = 2.96 s  ClockTime = 3 s

    Overall     = 0.00153717, 0.01
Time = 272

diagonal:  Solving for rho, Initial residual = 0, Final residual = 0, No Iterations 0

Execution time for mesh.update() = 0 s

DILUPBiCGStab:  Solving for Ux, Initial residual = 0.00514937, Final residual = 5.32154e-09, No Iterations 3
DILUPBiCGStab:  Solving for Uy, Initial residual = 0.00791396, Final residual = 7.98823e-10, No Iterations 3
DILUPBiCGStab:  Solving for O2, Initial residual = 0.00268409, Final residual = 2.13761e-09, No Iterations 3
DILUPBiCGStab:  Solving for H2O, Initial residual = 0.0026841, Final residual = 2.13761e-09, No Iterations 3
DILUPBiCGStab:  Solving for CH4, Initial residual = 0, Final residual = 0, No Iterations 0
DILUPBiCGStab:  Solving for CO2, Initial residual = 0.0026841, Final residual = 2.13761e-09, No Iterations 3
DILUPBiCGStab:  Solving for h, Initial residual = 0.00304831, Final residual = 2.10871e-09, No Iterations 3
min/max(T) = 299.973, 1044.97
GAMGPCG:  Solving for p_rgh, Initial residual = 0.0236496, Final residual = 5.97922e-07, No Iterations 4
diagonal:  Solving for rho, Initial residual = 0, Final residual = 0, No Iterations 0
time step continuity errors : sum local = 3.395e-08, global = -2.45968e-10, cumulative = -3.06044e-07
GAMGPCG:  Solving for p_rgh, Initial residual = 0.00261409, Final residual = 1.20032e-07, No Iterations 4
diagonal:  Solving for rho, Initial residual = 0, Final residual = 0, No Iterations 0
time step continuity errors : sum local = 6.81717e-09, global = -6.04193e-11, cumulative = -3.06105e-07
DILUPBiCGStab:  Solving for omega, Initial residual = 0.000102794, Final residual = 1.45025e-09, No Iterations 2
DILUPBiCGStab:  Solving for k, Initial residual = 0.0050374, Final residual = 8.95838e-10, No Iterations 3

ExecutionTime = 3.07 s  ClockTime = 3 s

    Overall     = 0.00156088, 0.01
Time = 273

diagonal:  Solving for rho, Initial residual = 0, Final residual = 0, No Iterations 0

Execution time for mesh.update() = 0 s

DILUPBiCGStab:  Solving for Ux, Initial residual = 0.00518014, Final residual = 6.21808e-09, No Iterations 3
DILUPBiCGStab:  Solving for Uy, Initial residual = 0.00790822, Final residual = 9.11697e-09, No Iterations 3
DILUPBiCGStab:  Solving for O2, Initial residual = 0.00268666, Final residual = 2.16844e-09, No Iterations 3
DILUPBiCGStab:  Solving for H2O, Initial residual = 0.00268668, Final residual = 2.16845e-09, No Iterations 3
DILUPBiCGStab:  Solving for CH4, Initial residual = 0, Final residual = 0, No Iterations 0
DILUPBiCGStab:  Solving for CO2, Initial residual = 0.00268668, Final residual = 2.16845e-09, No Iterations 3
DILUPBiCGStab:  Solving for h, Initial residual = 0.0030621, Final residual = 2.19543e-09, No Iterations 3
min/max(T) = 299.966, 1044.97
GAMGPCG:  Solving for p_rgh, Initial residual = 0.0233245, Final residual = 5.00088e-07, No Iterations 4
diagonal:  Solving for rho, Initial residual = 0, Final residual = 0, No Iterations 0
time step continuity errors : sum local = 2.86627e-08, global = 1.81061e-10, cumulative = -3.05924e-07
GAMGPCG:  Solving for p_rgh, Initial residual = 0.00269532, Final residual = 9.43596e-07, No Iterations 3
diagonal:  Solving for rho, Initial residual = 0, Final residual = 0, No Iterations 0
time step continuity errors : sum local = 5.28647e-08, global = -3.37753e-09, cumulative = -3.09301e-07
DILUPBiCGStab:  Solving for omega, Initial residual = 0.000103974, Final residual = 1.45686e-09, No Iterations 2
DILUPBiCGStab:  Solving for k, Initial residual = 0.0050492, Final residual = 2.54416e-09, No Iterations 3

ExecutionTime = 3.19 s  ClockTime = 4 s

    Overall     = 0.00156803, 0.01
Time = 274

diagonal:  Solving for rho, Initial residual = 0, Final residual = 0, No Iterations 0

Execution time for mesh.update() = 0.01 s

DILUPBiCGStab:  Solving for Ux, Initial residual = 0.00520524, Final residual = 5.86041e-09, No Iterations 3
DILUPBiCGStab:  Solving for Uy, Initial residual = 0.00791757, Final residual = 7.87152e-09, No Iterations 3
DILUPBiCGStab:  Solving for O2, Initial residual = 0.00268718, Final residual = 2.33311e-09, No Iterations 3
DILUPBiCGStab:  Solving for H2O, Initial residual = 0.0026872, Final residual = 2.33313e-09, No Iterations 3
DILUPBiCGStab:  Solving for CH4, Initial residual = 0, Final residual = 0, No Iterations 0
DILUPBiCGStab:  Solving for CO2, Initial residual = 0.0026872, Final residual = 2.33313e-09, No Iterations 3
DILUPBiCGStab:  Solving for h, Initial residual = 0.00305802, Final residual = 2.28858e-09, No Iterations 3
min/max(T) = 299.954, 1044.97
GAMGPCG:  Solving for p_rgh, Initial residual = 0.0235909, Final residual = 6.65601e-07, No Iterations 4
diagonal:  Solving for rho, Initial residual = 0, Final residual = 0, No Iterations 0
time step continuity errors : sum local = 3.79562e-08, global = 1.22369e-09, cumulative = -3.08077e-07
GAMGPCG:  Solving for p_rgh, Initial residual = 0.00271223, Final residual = 8.69427e-07, No Iterations 3
diagonal:  Solving for rho, Initial residual = 0, Final residual = 0, No Iterations 0
time step continuity errors : sum local = 4.76692e-08, global = 1.0725e-10, cumulative = -3.0797e-07
DILUPBiCGStab:  Solving for omega, Initial residual = 0.000104493, Final residual = 1.53474e-09, No Iterations 2
DILUPBiCGStab:  Solving for k, Initial residual = 0.00505772, Final residual = 7.35214e-09, No Iterations 3

ExecutionTime = 3.31 s  ClockTime = 4 s

    Overall     = 0.001601, 0.01
Time = 275

diagonal:  Solving for rho, Initial residual = 0, Final residual = 0, No Iterations 0

Execution time for mesh.update() = 0 s

DILUPBiCGStab:  Solving for Ux, Initial residual = 0.0052438, Final residual = 5.2997e-09, No Iterations 3
DILUPBiCGStab:  Solving for Uy, Initial residual = 0.00792592, Final residual = 7.38142e-09, No Iterations 3
DILUPBiCGStab:  Solving for O2, Initial residual = 0.00269152, Final residual = 2.37198e-09, No Iterations 3
DILUPBiCGStab:  Solving for H2O, Initial residual = 0.00269155, Final residual = 2.37205e-09, No Iterations 3
DILUPBiCGStab:  Solving for CH4, Initial residual = 0, Final residual = 0, No Iterations 0
DILUPBiCGStab:  Solving for CO2, Initial residual = 0.00269155, Final residual = 2.37205e-09, No Iterations 3
DILUPBiCGStab:  Solving for h, Initial residual = 0.00306795, Final residual = 2.32247e-09, No Iterations 3
min/max(T) = 299.947, 1044.97
GAMGPCG:  Solving for p_rgh, Initial residual = 0.0241817, Final residual = 5.24109e-07, No Iterations 4
diagonal:  Solving for rho, Initial residual = 0, Final residual = 0, No Iterations 0
time step continuity errors : sum local = 3.01559e-08, global = -9.65439e-10, cumulative = -3.08936e-07
GAMGPCG:  Solving for p_rgh, Initial residual = 0.0027821, Final residual = 8.78703e-07, No Iterations 3
diagonal:  Solving for rho, Initial residual = 0, Final residual = 0, No Iterations 0
time step continuity errors : sum local = 5.05651e-08, global = -6.27599e-10, cumulative = -3.09563e-07
DILUPBiCGStab:  Solving for omega, Initial residual = 0.000104872, Final residual = 1.64073e-09, No Iterations 2
DILUPBiCGStab:  Solving for k, Initial residual = 0.00506722, Final residual = 3.73133e-09, No Iterations 3

ExecutionTime = 3.42 s  ClockTime = 4 s

    Overall     = 0.00160278, 0.01
Time = 276

diagonal:  Solving for rho, Initial residual = 0, Final residual = 0, No Iterations 0

Execution time for mesh.update() = 0 s

DILUPBiCGStab:  Solving for Ux, Initial residual = 0.00527678, Final residual = 5.46009e-09, No Iterations 3
DILUPBiCGStab:  Solving for Uy, Initial residual = 0.00793524, Final residual = 7.18792e-09, No Iterations 3
DILUPBiCGStab:  Solving for O2, Initial residual = 0.00269624, Final residual = 2.69198e-09, No Iterations 3
DILUPBiCGStab:  Solving for H2O, Initial residual = 0.00269627, Final residual = 2.69213e-09, No Iterations 3
DILUPBiCGStab:  Solving for CH4, Initial residual = 0, Final residual = 0, No Iterations 0
DILUPBiCGStab:  Solving for CO2, Initial residual = 0.00269627, Final residual = 2.69212e-09, No Iterations 3
DILUPBiCGStab:  Solving for h, Initial residual = 0.00306654, Final residual = 2.67655e-09, No Iterations 3
min/max(T) = 299.93, 1044.97
GAMGPCG:  Solving for p_rgh, Initial residual = 0.0244572, Final residual = 3.5508e-07, No Iterations 4
diagonal:  Solving for rho, Initial residual = 0, Final residual = 0, No Iterations 0
time step continuity errors : sum local = 2.03504e-08, global = 9.02974e-10, cumulative = -3.0866e-07
GAMGPCG:  Solving for p_rgh, Initial residual = 0.00284023, Final residual = 9.40042e-07, No Iterations 3
diagonal:  Solving for rho, Initial residual = 0, Final residual = 0, No Iterations 0
time step continuity errors : sum local = 5.27014e-08, global = 8.84224e-10, cumulative = -3.07776e-07
DILUPBiCGStab:  Solving for omega, Initial residual = 0.000105048, Final residual = 1.75823e-09, No Iterations 2
DILUPBiCGStab:  Solving for k, Initial residual = 0.00508084, Final residual = 3.56037e-09, No Iterations 3

ExecutionTime = 3.54 s  ClockTime = 4 s

    Overall     = 0.00164358, 0.01
Time = 277

diagonal:  Solving for rho, Initial residual = 0, Final residual = 0, No Iterations 0

Execution time for mesh.update() = 0 s

DILUPBiCGStab:  Solving for Ux, Initial residual = 0.00529141, Final residual = 5.55273e-09, No Iterations 3
DILUPBiCGStab:  Solving for Uy, Initial residual = 0.00791271, Final residual = 7.5826e-09, No Iterations 3
DILUPBiCGStab:  Solving for O2, Initial residual = 0.00270099, Final residual = 2.77829e-09, No Iterations 3
DILUPBiCGStab:  Solving for H2O, Initial residual = 0.00270104, Final residual = 2.77854e-09, No Iterations 3
DILUPBiCGStab:  Solving for CH4, Initial residual = 0, Final residual = 0, No Iterations 0
DILUPBiCGStab:  Solving for CO2, Initial residual = 0.00270104, Final residual = 2.77854e-09, No Iterations 3
DILUPBiCGStab:  Solving for h, Initial residual = 0.00309176, Final residual = 2.86999e-09, No Iterations 3
min/max(T) = 299.921, 1044.97
GAMGPCG:  Solving for p_rgh, Initial residual = 0.0242671, Final residual = 7.19404e-07, No Iterations 4
diagonal:  Solving for rho, Initial residual = 0, Final residual = 0, No Iterations 0
time step continuity errors : sum local = 4.2152e-08, global = 2.25224e-09, cumulative = -3.05524e-07
GAMGPCG:  Solving for p_rgh, Initial residual = 0.00294789, Final residual = 7.48512e-07, No Iterations 3
diagonal:  Solving for rho, Initial residual = 0, Final residual = 0, No Iterations 0
time step continuity errors : sum local = 4.30785e-08, global = 8.92999e-10, cumulative = -3.04631e-07
DILUPBiCGStab:  Solving for omega, Initial residual = 0.000106776, Final residual = 1.75794e-09, No Iterations 2
DILUPBiCGStab:  Solving for k, Initial residual = 0.00509045, Final residual = 4.34866e-09, No Iterations 3

ExecutionTime = 3.65 s  ClockTime = 4 s

    Overall     = 0.00164068, 0.01
Time = 278

diagonal:  Solving for rho, Initial residual = 0, Final residual = 0, No Iterations 0

Execution time for mesh.update() = 0 s

DILUPBiCGStab:  Solving for Ux, Initial residual = 0.00531055, Final residual = 5.494e-09, No Iterations 3
DILUPBiCGStab:  Solving for Uy, Initial residual = 0.00785929, Final residual = 6.92267e-09, No Iterations 3
DILUPBiCGStab:  Solving for O2, Initial residual = 0.00270667, Final residual = 3.24925e-09, No Iterations 3
DILUPBiCGStab:  Solving for H2O, Initial residual = 0.00270672, Final residual = 3.24956e-09, No Iterations 3
DILUPBiCGStab:  Solving for CH4, Initial residual = 0, Final residual = 0, No Iterations 0
DILUPBiCGStab:  Solving for CO2, Initial residual = 0.00270672, Final residual = 3.24956e-09, No Iterations 3
DILUPBiCGStab:  Solving for h, Initial residual = 0.00309145, Final residual = 3.31042e-09, No Iterations 3
min/max(T) = 299.897, 1044.97
GAMGPCG:  Solving for p_rgh, Initial residual = 0.0241034, Final residual = 4.10361e-07, No Iterations 4
diagonal:  Solving for rho, Initial residual = 0, Final residual = 0, No Iterations 0
time step continuity errors : sum local = 2.37291e-08, global = 6.75503e-10, cumulative = -3.03955e-07
GAMGPCG:  Solving for p_rgh, Initial residual = 0.00292185, Final residual = 7.44714e-07, No Iterations 3
diagonal:  Solving for rho, Initial residual = 0, Final residual = 0, No Iterations 0
time step continuity errors : sum local = 4.07825e-08, global = 1.78237e-09, cumulative = -3.02173e-07
DILUPBiCGStab:  Solving for omega, Initial residual = 0.000107766, Final residual = 1.81276e-09, No Iterations 2
DILUPBiCGStab:  Solving for k, Initial residual = 0.0051043, Final residual = 3.64558e-09, No Iterations 3

ExecutionTime = 3.76 s  ClockTime = 4 s

    Overall     = 0.00168538, 0.01
Time = 279

diagonal:  Solving for rho, Initial residual = 0, Final residual = 0, No Iterations 0

Execution time for mesh.update() = 0.01 s

DILUPBiCGStab:  Solving for Ux, Initial residual = 0.00530191, Final residual = 4.97612e-09, No Iterations 3
DILUPBiCGStab:  Solving for Uy, Initial residual = 0.00779489, Final residual = 7.0128e-09, No Iterations 3
DILUPBiCGStab:  Solving for O2, Initial residual = 0.00269978, Final residual = 3.39279e-09, No Iterations 3
DILUPBiCGStab:  Solving for H2O, Initial residual = 0.00269985, Final residual = 3.39317e-09, No Iterations 3
DILUPBiCGStab:  Solving for CH4, Initial residual = 0, Final residual = 0, No Iterations 0
DILUPBiCGStab:  Solving for CO2, Initial residual = 0.00269985, Final residual = 3.39317e-09, No Iterations 3
DILUPBiCGStab:  Solving for h, Initial residual = 0.0030949, Final residual = 3.47978e-09, No Iterations 3
min/max(T) = 299.885, 1044.97
GAMGPCG:  Solving for p_rgh, Initial residual = 0.0235643, Final residual = 5.54662e-07, No Iterations 4
diagonal:  Solving for rho, Initial residual = 0, Final residual = 0, No Iterations 0
time step continuity errors : sum local = 3.16604e-08, global = -3.12328e-09, cumulative = -3.05296e-07
GAMGPCG:  Solving for p_rgh, Initial residual = 0.00283544, Final residual = 7.34018e-07, No Iterations 3
diagonal:  Solving for rho, Initial residual = 0, Final residual = 0, No Iterations 0
time step continuity errors : sum local = 4.27035e-08, global = 1.07901e-09, cumulative = -3.04217e-07
DILUPBiCGStab:  Solving for omega, Initial residual = 0.000107023, Final residual = 1.86462e-09, No Iterations 2
DILUPBiCGStab:  Solving for k, Initial residual = 0.00511195, Final residual = 3.36118e-09, No Iterations 3

ExecutionTime = 3.88 s  ClockTime = 4 s

    Overall     = 0.00168376, 0.01
Time = 280

diagonal:  Solving for rho, Initial residual = 0, Final residual = 0, No Iterations 0

Execution time for mesh.update() = 0 s

DILUPBiCGStab:  Solving for Ux, Initial residual = 0.00526987, Final residual = 5.08077e-09, No Iterations 3
DILUPBiCGStab:  Solving for Uy, Initial residual = 0.00776768, Final residual = 7.62877e-09, No Iterations 3
GAMGPCG:  Solving for G, Initial residual = 0.207429, Final residual = 6.42987e-05, No Iterations 6
DILUPBiCGStab:  Solving for O2, Initial residual = 0.00269319, Final residual = 3.19922e-09, No Iterations 3
DILUPBiCGStab:  Solving for H2O, Initial residual = 0.00269326, Final residual = 3.19958e-09, No Iterations 3
DILUPBiCGStab:  Solving for CH4, Initial residual = 0, Final residual = 0, No Iterations 0
DILUPBiCGStab:  Solving for CO2, Initial residual = 0.00269326, Final residual = 3.19958e-09, No Iterations 3
DILUPBiCGStab:  Solving for h, Initial residual = 0.00308382, Final residual = 3.35517e-09, No Iterations 3
min/max(T) = 299.851, 1044.97
GAMGPCG:  Solving for p_rgh, Initial residual = 0.0241532, Final residual = 6.4097e-07, No Iterations 4
diagonal:  Solving for rho, Initial residual = 0, Final residual = 0, No Iterations 0
time step continuity errors : sum local = 3.66678e-08, global = -8.67231e-10, cumulative = -3.05084e-07
GAMGPCG:  Solving for p_rgh, Initial residual = 0.00297926, Final residual = 6.73486e-07, No Iterations 3
diagonal:  Solving for rho, Initial residual = 0, Final residual = 0, No Iterations 0
time step continuity errors : sum local = 3.85569e-08, global = 4.36964e-09, cumulative = -3.00715e-07
DILUPBiCGStab:  Solving for omega, Initial residual = 0.000106777, Final residual = 1.85068e-09, No Iterations 2
DILUPBiCGStab:  Solving for k, Initial residual = 0.00512774, Final residual = 3.45586e-09, No Iterations 3

ExecutionTime = 4.12 s  ClockTime = 5 s

    Overall     = 0.00172525, 0.01
Time = 281

diagonal:  Solving for rho, Initial residual = 0, Final residual = 0, No Iterations 0

Execution time for mesh.update() = 0 s

DILUPBiCGStab:  Solving for Ux, Initial residual = 0.00530188, Final residual = 4.98545e-09, No Iterations 3
DILUPBiCGStab:  Solving for Uy, Initial residual = 0.00776496, Final residual = 7.05245e-09, No Iterations 3
DILUPBiCGStab:  Solving for O2, Initial residual = 0.002687, Final residual = 3.26019e-09, No Iterations 3
DILUPBiCGStab:  Solving for H2O, Initial residual = 0.00268711, Final residual = 3.26081e-09, No Iterations 3
DILUPBiCGStab:  Solving for CH4, Initial residual = 0, Final residual = 0, No Iterations 0
DILUPBiCGStab:  Solving for CO2, Initial residual = 0.00268711, Final residual = 3.26081e-09, No Iterations 3
DILUPBiCGStab:  Solving for h, Initial residual = 0.00308056, Final residual = 3.35547e-09, No Iterations 3
min/max(T) = 299.834, 1044.97
GAMGPCG:  Solving for p_rgh, Initial residual = 0.023247, Final residual = 6.02898e-07, No Iterations 4
diagonal:  Solving for rho, Initial residual = 0, Final residual = 0, No Iterations 0
time step continuity errors : sum local = 3.42192e-08, global = -6.65164e-09, cumulative = -3.07366e-07
GAMGPCG:  Solving for p_rgh, Initial residual = 0.00288775, Final residual = 5.99195e-07, No Iterations 3
diagonal:  Solving for rho, Initial residual = 0, Final residual = 0, No Iterations 0
time step continuity errors : sum local = 3.42503e-08, global = 3.40452e-09, cumulative = -3.03962e-07
DILUPBiCGStab:  Solving for omega, Initial residual = 0.00010648, Final residual = 1.78247e-09, No Iterations 2
DILUPBiCGStab:  Solving for k, Initial residual = 0.00513796, Final residual = 4.30164e-09, No Iterations 3

ExecutionTime = 4.24 s  ClockTime = 5 s

    Overall     = 0.00173413, 0.01
Time = 282

diagonal:  Solving for rho, Initial residual = 0, Final residual = 0, No Iterations 0

Execution time for mesh.update() = 0 s

DILUPBiCGStab:  Solving for Ux, Initial residual = 0.00529186, Final residual = 4.98383e-09, No Iterations 3
DILUPBiCGStab:  Solving for Uy, Initial residual = 0.00768739, Final residual = 7.07492e-09, No Iterations 3
DILUPBiCGStab:  Solving for O2, Initial residual = 0.00268788, Final residual = 3.05568e-09, No Iterations 3
DILUPBiCGStab:  Solving for H2O, Initial residual = 0.00268799, Final residual = 3.05644e-09, No Iterations 3
DILUPBiCGStab:  Solving for CH4, Initial residual = 0, Final residual = 0, No Iterations 0
DILUPBiCGStab:  Solving for CO2, Initial residual = 0.00268799, Final residual = 3.05644e-09, No Iterations 3
DILUPBiCGStab:  Solving for h, Initial residual = 0.00308529, Final residual = 3.23186e-09, No Iterations 3
min/max(T) = 299.792, 1044.97
GAMGPCG:  Solving for p_rgh, Initial residual = 0.024057, Final residual = 6.42584e-07, No Iterations 4
diagonal:  Solving for rho, Initial residual = 0, Final residual = 0, No Iterations 0
time step continuity errors : sum local = 3.63372e-08, global = -2.45776e-09, cumulative = -3.0642e-07
GAMGPCG:  Solving for p_rgh, Initial residual = 0.0030383, Final residual = 5.6432e-07, No Iterations 3
diagonal:  Solving for rho, Initial residual = 0, Final residual = 0, No Iterations 0
time step continuity errors : sum local = 3.16361e-08, global = 2.23096e-09, cumulative = -3.04189e-07
DILUPBiCGStab:  Solving for omega, Initial residual = 0.00010728, Final residual = 1.77847e-09, No Iterations 2
DILUPBiCGStab:  Solving for k, Initial residual = 0.00514656, Final residual = 4.68733e-09, No Iterations 3

ExecutionTime = 4.35 s  ClockTime = 5 s

    Overall     = 0.00176861, 0.01
Time = 283

diagonal:  Solving for rho, Initial residual = 0, Final residual = 0, No Iterations 0

Execution time for mesh.update() = 0 s

DILUPBiCGStab:  Solving for Ux, Initial residual = 0.00527161, Final residual = 4.82019e-09, No Iterations 3
DILUPBiCGStab:  Solving for Uy, Initial residual = 0.00767502, Final residual = 6.9895e-09, No Iterations 3
DILUPBiCGStab:  Solving for O2, Initial residual = 0.00268059, Final residual = 2.69605e-09, No Iterations 3
DILUPBiCGStab:  Solving for H2O, Initial residual = 0.00268074, Final residual = 2.69662e-09, No Iterations 3
DILUPBiCGStab:  Solving for CH4, Initial residual = 0, Final residual = 0, No Iterations 0
DILUPBiCGStab:  Solving for CO2, Initial residual = 0.00268074, Final residual = 2.69662e-09, No Iterations 3
DILUPBiCGStab:  Solving for h, Initial residual = 0.00308394, Final residual = 3.13853e-09, No Iterations 3
min/max(T) = 299.778, 1044.97
GAMGPCG:  Solving for p_rgh, Initial residual = 0.0232997, Final residual = 5.4737e-07, No Iterations 4
diagonal:  Solving for rho, Initial residual = 0, Final residual = 0, No Iterations 0
time step continuity errors : sum local = 3.11438e-08, global = -2.70408e-09, cumulative = -3.06893e-07
GAMGPCG:  Solving for p_rgh, Initial residual = 0.00301864, Final residual = 7.24244e-07, No Iterations 3
diagonal:  Solving for rho, Initial residual = 0, Final residual = 0, No Iterations 0
time step continuity errors : sum local = 4.08393e-08, global = 9.20126e-10, cumulative = -3.05973e-07
DILUPBiCGStab:  Solving for omega, Initial residual = 0.000107909, Final residual = 1.68401e-09, No Iterations 2
DILUPBiCGStab:  Solving for k, Initial residual = 0.0051619, Final residual = 5.52972e-09, No Iterations 3

ExecutionTime = 4.47 s  ClockTime = 5 s

    Overall     = 0.00178613, 0.01
Time = 284

diagonal:  Solving for rho, Initial residual = 0, Final residual = 0, No Iterations 0

Execution time for mesh.update() = 0 s

DILUPBiCGStab:  Solving for Ux, Initial residual = 0.00525619, Final residual = 5.1098e-09, No Iterations 3
DILUPBiCGStab:  Solving for Uy, Initial residual = 0.00762199, Final residual = 7.22247e-09, No Iterations 3
DILUPBiCGStab:  Solving for O2, Initial residual = 0.00268038, Final residual = 3.37876e-09, No Iterations 3
DILUPBiCGStab:  Solving for H2O, Initial residual = 0.00268054, Final residual = 3.3793e-09, No Iterations 3
DILUPBiCGStab:  Solving for CH4, Initial residual = 0, Final residual = 0, No Iterations 0
DILUPBiCGStab:  Solving for CO2, Initial residual = 0.00268054, Final residual = 3.37931e-09, No Iterations 3
DILUPBiCGStab:  Solving for h, Initial residual = 0.00308814, Final residual = 3.2995e-09, No Iterations 3
min/max(T) = 299.739, 1044.97
GAMGPCG:  Solving for p_rgh, Initial residual = 0.0230255, Final residual = 5.65782e-07, No Iterations 4
diagonal:  Solving for rho, Initial residual = 0, Final residual = 0, No Iterations 0
time step continuity errors : sum local = 3.17815e-08, global = -2.00335e-09, cumulative = -3.07976e-07
GAMGPCG:  Solving for p_rgh, Initial residual = 0.00309505, Final residual = 7.2774e-07, No Iterations 3
diagonal:  Solving for rho, Initial residual = 0, Final residual = 0, No Iterations 0
time step continuity errors : sum local = 4.08672e-08, global = 2.26842e-09, cumulative = -3.05708e-07
DILUPBiCGStab:  Solving for omega, Initial residual = 0.000107553, Final residual = 1.69155e-09, No Iterations 2
DILUPBiCGStab:  Solving for k, Initial residual = 0.00517985, Final residual = 5.78446e-09, No Iterations 3

ExecutionTime = 4.58 s  ClockTime = 5 s

    Overall     = 0.00173704, 0.01
Time = 285

diagonal:  Solving for rho, Initial residual = 0, Final residual = 0, No Iterations 0

Execution time for mesh.update() = 0 s

DILUPBiCGStab:  Solving for Ux, Initial residual = 0.00523709, Final residual = 5.07977e-09, No Iterations 3
DILUPBiCGStab:  Solving for Uy, Initial residual = 0.00755471, Final residual = 7.22545e-09, No Iterations 3
DILUPBiCGStab:  Solving for O2, Initial residual = 0.00268732, Final residual = 2.98396e-09, No Iterations 3
DILUPBiCGStab:  Solving for H2O, Initial residual = 0.00268751, Final residual = 2.9845e-09, No Iterations 3
DILUPBiCGStab:  Solving for CH4, Initial residual = 0, Final residual = 0, No Iterations 0
DILUPBiCGStab:  Solving for CO2, Initial residual = 0.00268751, Final residual = 2.98451e-09, No Iterations 3
DILUPBiCGStab:  Solving for h, Initial residual = 0.00310239, Final residual = 3.03579e-09, No Iterations 3
min/max(T) = 299.727, 1044.97
GAMGPCG:  Solving for p_rgh, Initial residual = 0.0222809, Final residual = 5.56121e-07, No Iterations 4
diagonal:  Solving for rho, Initial residual = 0, Final residual = 0, No Iterations 0
time step continuity errors : sum local = 3.1543e-08, global = -2.73325e-09, cumulative = -3.08441e-07
GAMGPCG:  Solving for p_rgh, Initial residual = 0.0030447, Final residual = 6.54463e-07, No Iterations 3
diagonal:  Solving for rho, Initial residual = 0, Final residual = 0, No Iterations 0
time step continuity errors : sum local = 3.70538e-08, global = 1.14273e-09, cumulative = -3.07298e-07
DILUPBiCGStab:  Solving for omega, Initial residual = 0.000108272, Final residual = 1.58135e-09, No Iterations 2
DILUPBiCGStab:  Solving for k, Initial residual = 0.00520702, Final residual = 5.48833e-09, No Iterations 3

ExecutionTime = 4.69 s  ClockTime = 5 s

    Overall     = 0.0016922, 0.01
Time = 286

diagonal:  Solving for rho, Initial residual = 0, Final residual = 0, No Iterations 0

Execution time for mesh.update() = 0 s

DILUPBiCGStab:  Solving for Ux, Initial residual = 0.00524337, Final residual = 4.7919e-09, No Iterations 3
DILUPBiCGStab:  Solving for Uy, Initial residual = 0.00753267, Final residual = 7.62563e-09, No Iterations 3
DILUPBiCGStab:  Solving for O2, Initial residual = 0.00267767, Final residual = 2.78294e-09, No Iterations 3
DILUPBiCGStab:  Solving for H2O, Initial residual = 0.00267787, Final residual = 2.78338e-09, No Iterations 3
DILUPBiCGStab:  Solving for CH4, Initial residual = 0, Final residual = 0, No Iterations 0
DILUPBiCGStab:  Solving for CO2, Initial residual = 0.00267787, Final residual = 2.78338e-09, No Iterations 3
DILUPBiCGStab:  Solving for h, Initial residual = 0.00309971, Final residual = 2.9249e-09, No Iterations 3
min/max(T) = 299.683, 1044.97
GAMGPCG:  Solving for p_rgh, Initial residual = 0.0216599, Final residual = 4.28408e-07, No Iterations 4
diagonal:  Solving for rho, Initial residual = 0, Final residual = 0, No Iterations 0
time step continuity errors : sum local = 2.39916e-08, global = -1.63402e-09, cumulative = -3.08932e-07
GAMGPCG:  Solving for p_rgh, Initial residual = 0.00295146, Final residual = 6.08438e-07, No Iterations 3
diagonal:  Solving for rho, Initial residual = 0, Final residual = 0, No Iterations 0
time step continuity errors : sum local = 3.38406e-08, global = 8.4382e-11, cumulative = -3.08848e-07
DILUPBiCGStab:  Solving for omega, Initial residual = 0.000107234, Final residual = 1.56299e-09, No Iterations 2
DILUPBiCGStab:  Solving for k, Initial residual = 0.00523069, Final residual = 3.93182e-09, No Iterations 3

ExecutionTime = 4.81 s  ClockTime = 5 s

    Overall     = 0.00165187, 0.01
Time = 287

diagonal:  Solving for rho, Initial residual = 0, Final residual = 0, No Iterations 0

Execution time for mesh.update() = 0 s

DILUPBiCGStab:  Solving for Ux, Initial residual = 0.00521264, Final residual = 4.58824e-09, No Iterations 3
DILUPBiCGStab:  Solving for Uy, Initial residual = 0.00746269, Final residual = 7.34915e-09, No Iterations 3
DILUPBiCGStab:  Solving for O2, Initial residual = 0.00268874, Final residual = 2.57738e-09, No Iterations 3
DILUPBiCGStab:  Solving for H2O, Initial residual = 0.00268898, Final residual = 2.5779e-09, No Iterations 3
DILUPBiCGStab:  Solving for CH4, Initial residual = 0, Final residual = 0, No Iterations 0
DILUPBiCGStab:  Solving for CO2, Initial residual = 0.00268898, Final residual = 2.5779e-09, No Iterations 3
DILUPBiCGStab:  Solving for h, Initial residual = 0.00311956, Final residual = 2.77884e-09, No Iterations 3
min/max(T) = 299.671, 1044.97
GAMGPCG:  Solving for p_rgh, Initial residual = 0.0211777, Final residual = 6.03962e-07, No Iterations 4
diagonal:  Solving for rho, Initial residual = 0, Final residual = 0, No Iterations 0
time step continuity errors : sum local = 3.43835e-08, global = -1.08996e-09, cumulative = -3.09938e-07
GAMGPCG:  Solving for p_rgh, Initial residual = 0.00295752, Final residual = 7.93919e-07, No Iterations 3
diagonal:  Solving for rho, Initial residual = 0, Final residual = 0, No Iterations 0
time step continuity errors : sum local = 4.39711e-08, global = 5.80722e-09, cumulative = -3.0413e-07
DILUPBiCGStab:  Solving for omega, Initial residual = 0.000107559, Final residual = 1.55194e-09, No Iterations 2
DILUPBiCGStab:  Solving for k, Initial residual = 0.00526221, Final residual = 3.62531e-09, No Iterations 3

ExecutionTime = 4.92 s  ClockTime = 5 s

    Overall     = 0.00161658, 0.01
Time = 288

diagonal:  Solving for rho, Initial residual = 0, Final residual = 0, No Iterations 0

Execution time for mesh.update() = 0 s

DILUPBiCGStab:  Solving for Ux, Initial residual = 0.00518678, Final residual = 4.43628e-09, No Iterations 3
DILUPBiCGStab:  Solving for Uy, Initial residual = 0.00744504, Final residual = 7.22604e-09, No Iterations 3
DILUPBiCGStab:  Solving for O2, Initial residual = 0.00268484, Final residual = 2.55088e-09, No Iterations 3
DILUPBiCGStab:  Solving for H2O, Initial residual = 0.00268509, Final residual = 2.55134e-09, No Iterations 3
DILUPBiCGStab:  Solving for CH4, Initial residual = 0, Final residual = 0, No Iterations 0
DILUPBiCGStab:  Solving for CO2, Initial residual = 0.00268509, Final residual = 2.55134e-09, No Iterations 3
DILUPBiCGStab:  Solving for h, Initial residual = 0.00311644, Final residual = 2.77313e-09, No Iterations 3
min/max(T) = 299.624, 1044.97
GAMGPCG:  Solving for p_rgh, Initial residual = 0.0207291, Final residual = 4.30258e-07, No Iterations 4
diagonal:  Solving for rho, Initial residual = 0, Final residual = 0, No Iterations 0
time step continuity errors : sum local = 2.44035e-08, global = -5.13834e-10, cumulative = -3.04644e-07
GAMGPCG:  Solving for p_rgh, Initial residual = 0.00282959, Final residual = 7.66104e-07, No Iterations 3
diagonal:  Solving for rho, Initial residual = 0, Final residual = 0, No Iterations 0
time step continuity errors : sum local = 4.30191e-08, global = 2.78551e-09, cumulative = -3.01859e-07
DILUPBiCGStab:  Solving for omega, Initial residual = 0.000106736, Final residual = 1.51969e-09, No Iterations 2
DILUPBiCGStab:  Solving for k, Initial residual = 0.00528564, Final residual = 3.47169e-09, No Iterations 3

ExecutionTime = 5.04 s  ClockTime = 5 s

    Overall     = 0.0015811, 0.01
Time = 289

diagonal:  Solving for rho, Initial residual = 0, Final residual = 0, No Iterations 0

Execution time for mesh.update() = 0 s

DILUPBiCGStab:  Solving for Ux, Initial residual = 0.00516869, Final residual = 4.28064e-09, No Iterations 3
DILUPBiCGStab:  Solving for Uy, Initial residual = 0.00736034, Final residual = 6.43362e-09, No Iterations 3
DILUPBiCGStab:  Solving for O2, Initial residual = 0.00269397, Final residual = 2.35289e-09, No Iterations 3
DILUPBiCGStab:  Solving for H2O, Initial residual = 0.00269427, Final residual = 2.35323e-09, No Iterations 3
DILUPBiCGStab:  Solving for CH4, Initial residual = 0, Final residual = 0, No Iterations 0
DILUPBiCGStab:  Solving for CO2, Initial residual = 0.00269427, Final residual = 2.35323e-09, No Iterations 3
DILUPBiCGStab:  Solving for h, Initial residual = 0.00313671, Final residual = 2.43819e-09, No Iterations 3
min/max(T) = 299.62, 1044.97
GAMGPCG:  Solving for p_rgh, Initial residual = 0.0209327, Final residual = 4.59608e-07, No Iterations 4
diagonal:  Solving for rho, Initial residual = 0, Final residual = 0, No Iterations 0
time step continuity errors : sum local = 2.63968e-08, global = -5.16161e-10, cumulative = -3.02375e-07
GAMGPCG:  Solving for p_rgh, Initial residual = 0.00289453, Final residual = 7.01505e-07, No Iterations 3
diagonal:  Solving for rho, Initial residual = 0, Final residual = 0, No Iterations 0
time step continuity errors : sum local = 3.90054e-08, global = -1.24437e-09, cumulative = -3.03619e-07
DILUPBiCGStab:  Solving for omega, Initial residual = 0.000107793, Final residual = 1.48838e-09, No Iterations 2
DILUPBiCGStab:  Solving for k, Initial residual = 0.00531951, Final residual = 3.91803e-09, No Iterations 3

ExecutionTime = 5.15 s  ClockTime = 6 s

    Overall     = 0.00155236, 0.01
Time = 290

diagonal:  Solving for rho, Initial residual = 0, Final residual = 0, No Iterations 0

Execution time for mesh.update() = 0 s

DILUPBiCGStab:  Solving for Ux, Initial residual = 0.00517564, Final residual = 4.17911e-09, No Iterations 3
DILUPBiCGStab:  Solving for Uy, Initial residual = 0.00735195, Final residual = 6.19978e-09, No Iterations 3
GAMGPCG:  Solving for G, Initial residual = 0.230395, Final residual = 2.98162e-05, No Iterations 6
DILUPBiCGStab:  Solving for O2, Initial residual = 0.00270209, Final residual = 2.38154e-09, No Iterations 3
DILUPBiCGStab:  Solving for H2O, Initial residual = 0.0027024, Final residual = 2.38186e-09, No Iterations 3
DILUPBiCGStab:  Solving for CH4, Initial residual = 0, Final residual = 0, No Iterations 0
DILUPBiCGStab:  Solving for CO2, Initial residual = 0.0027024, Final residual = 2.38186e-09, No Iterations 3
DILUPBiCGStab:  Solving for h, Initial residual = 0.0031424, Final residual = 2.4595e-09, No Iterations 3
min/max(T) = 299.575, 1044.97
GAMGPCG:  Solving for p_rgh, Initial residual = 0.0205952, Final residual = 3.76986e-07, No Iterations 4
diagonal:  Solving for rho, Initial residual = 0, Final residual = 0, No Iterations 0
time step continuity errors : sum local = 2.1007e-08, global = -2.16872e-09, cumulative = -3.05788e-07
GAMGPCG:  Solving for p_rgh, Initial residual = 0.00292571, Final residual = 6.55568e-07, No Iterations 3
diagonal:  Solving for rho, Initial residual = 0, Final residual = 0, No Iterations 0
time step continuity errors : sum local = 3.67785e-08, global = -2.59324e-09, cumulative = -3.08381e-07
DILUPBiCGStab:  Solving for omega, Initial residual = 0.000108014, Final residual = 1.46574e-09, No Iterations 2
DILUPBiCGStab:  Solving for k, Initial residual = 0.00534123, Final residual = 4.18655e-09, No Iterations 3

ExecutionTime = 5.4 s  ClockTime = 6 s

    Overall     = 0.00153133, 0.01
Time = 291

diagonal:  Solving for rho, Initial residual = 0, Final residual = 0, No Iterations 0

Execution time for mesh.update() = 0 s

DILUPBiCGStab:  Solving for Ux, Initial residual = 0.00518572, Final residual = 4.24446e-09, No Iterations 3
DILUPBiCGStab:  Solving for Uy, Initial residual = 0.00731008, Final residual = 6.02959e-09, No Iterations 3
DILUPBiCGStab:  Solving for O2, Initial residual = 0.00269589, Final residual = 2.16775e-09, No Iterations 3
DILUPBiCGStab:  Solving for H2O, Initial residual = 0.00269623, Final residual = 2.1679e-09, No Iterations 3
DILUPBiCGStab:  Solving for CH4, Initial residual = 0, Final residual = 0, No Iterations 0
DILUPBiCGStab:  Solving for CO2, Initial residual = 0.00269623, Final residual = 2.1679e-09, No Iterations 3
DILUPBiCGStab:  Solving for h, Initial residual = 0.00314046, Final residual = 2.24123e-09, No Iterations 3
min/max(T) = 299.575, 1044.97
GAMGPCG:  Solving for p_rgh, Initial residual = 0.0202306, Final residual = 4.14588e-07, No Iterations 4
diagonal:  Solving for rho, Initial residual = 0, Final residual = 0, No Iterations 0
time step continuity errors : sum local = 2.36422e-08, global = 6.07964e-10, cumulative = -3.07773e-07
GAMGPCG:  Solving for p_rgh, Initial residual = 0.00293842, Final residual = 7.77844e-07, No Iterations 3
diagonal:  Solving for rho, Initial residual = 0, Final residual = 0, No Iterations 0
time step continuity errors : sum local = 4.25547e-08, global = 4.9281e-11, cumulative = -3.07724e-07
DILUPBiCGStab:  Solving for omega, Initial residual = 0.000108207, Final residual = 1.37828e-09, No Iterations 2
DILUPBiCGStab:  Solving for k, Initial residual = 0.00536854, Final residual = 4.61148e-09, No Iterations 3

ExecutionTime = 5.52 s  ClockTime = 6 s

    Overall     = 0.00151352, 0.01
Time = 292

diagonal:  Solving for rho, Initial residual = 0, Final residual = 0, No Iterations 0

Execution time for mesh.update() = 0 s

DILUPBiCGStab:  Solving for Ux, Initial residual = 0.00512891, Final residual = 4.86263e-09, No Iterations 3
DILUPBiCGStab:  Solving for Uy, Initial residual = 0.00724897, Final residual = 5.60296e-09, No Iterations 3
DILUPBiCGStab:  Solving for O2, Initial residual = 0.00269372, Final residual = 2.18962e-09, No Iterations 3
DILUPBiCGStab:  Solving for H2O, Initial residual = 0.00269407, Final residual = 2.18971e-09, No Iterations 3
DILUPBiCGStab:  Solving for CH4, Initial residual = 0, Final residual = 0, No Iterations 0
DILUPBiCGStab:  Solving for CO2, Initial residual = 0.00269407, Final residual = 2.18971e-09, No Iterations 3
DILUPBiCGStab:  Solving for h, Initial residual = 0.00314016, Final residual = 2.18689e-09, No Iterations 3
min/max(T) = 299.528, 1044.97
GAMGPCG:  Solving for p_rgh, Initial residual = 0.0199388, Final residual = 4.60285e-07, No Iterations 4
diagonal:  Solving for rho, Initial residual = 0, Final residual = 0, No Iterations 0
time step continuity errors : sum local = 2.62557e-08, global = 1.69295e-09, cumulative = -3.06031e-07
GAMGPCG:  Solving for p_rgh, Initial residual = 0.0028348, Final residual = 9.26592e-07, No Iterations 3
diagonal:  Solving for rho, Initial residual = 0, Final residual = 0, No Iterations 0
time step continuity errors : sum local = 4.99558e-08, global = 2.0154e-09, cumulative = -3.04016e-07
DILUPBiCGStab:  Solving for omega, Initial residual = 0.000107627, Final residual = 1.38069e-09, No Iterations 2
DILUPBiCGStab:  Solving for k, Initial residual = 0.0053843, Final residual = 1.69227e-09, No Iterations 3

ExecutionTime = 5.63 s  ClockTime = 6 s

    Overall     = 0.00149748, 0.01
Time = 293

[...]
DILUPBiCGStab:  Solving for Uy, Initial residual = 0.00410959, Final residual = 1.17903e-09, No Iterations 3
GAMGPCG:  Solving for G, Initial residual = 0.122407, Final residual = 9.11768e-05, No Iterations 5
DILUPBiCGStab:  Solving for O2, Initial residual = 0.00177211, Final residual = 2.97152e-09, No Iterations 3
DILUPBiCGStab:  Solving for H2O, Initial residual = 0.0017721, Final residual = 2.97153e-09, No Iterations 3
DILUPBiCGStab:  Solving for CH4, Initial residual = 0, Final residual = 0, No Iterations 0
DILUPBiCGStab:  Solving for CO2, Initial residual = 0.0017721, Final residual = 2.97153e-09, No Iterations 3
DILUPBiCGStab:  Solving for h, Initial residual = 0.00193403, Final residual = 3.06457e-09, No Iterations 3
min/max(T) = 299.999, 1044.97
GAMGPCG:  Solving for p_rgh, Initial residual = 0.0160057, Final residual = 7.18131e-07, No Iterations 4
diagonal:  Solving for rho, Initial residual = 0, Final residual = 0, No Iterations 0
time step continuity errors : sum local = 2.86249e-08, global = -4.39349e-09, cumulative = 1.36401e-06
GAMGPCG:  Solving for p_rgh, Initial residual = 0.00278606, Final residual = 2.77521e-07, No Iterations 4
diagonal:  Solving for rho, Initial residual = 0, Final residual = 0, No Iterations 0
time step continuity errors : sum local = 1.1001e-08, global = 2.12919e-09, cumulative = 1.36614e-06
DILUPBiCGStab:  Solving for omega, Initial residual = 9.05473e-05, Final residual = 2.39516e-09, No Iterations 2
DILUPBiCGStab:  Solving for k, Initial residual = 0.00352984, Final residual = 3.42217e-09, No Iterations 3

ExecutionTime = 292.73 s  ClockTime = 293 s

    Overall     = 0.00127919, 0.01
Time = 2491

diagonal:  Solving for rho, Initial residual = 0, Final residual = 0, No Iterations 0

Execution time for mesh.update() = 0 s

DILUPBiCGStab:  Solving for Ux, Initial residual = 0.00463397, Final residual = 1.02008e-09, No Iterations 3
DILUPBiCGStab:  Solving for Uy, Initial residual = 0.00407782, Final residual = 1.20638e-09, No Iterations 3
DILUPBiCGStab:  Solving for O2, Initial residual = 0.00175912, Final residual = 3.35275e-09, No Iterations 3
DILUPBiCGStab:  Solving for H2O, Initial residual = 0.00175913, Final residual = 3.35275e-09, No Iterations 3
DILUPBiCGStab:  Solving for CH4, Initial residual = 0, Final residual = 0, No Iterations 0
DILUPBiCGStab:  Solving for CO2, Initial residual = 0.00175913, Final residual = 3.35275e-09, No Iterations 3
DILUPBiCGStab:  Solving for h, Initial residual = 0.00191852, Final residual = 3.51428e-09, No Iterations 3
min/max(T) = 299.97, 1044.97
GAMGPCG:  Solving for p_rgh, Initial residual = 0.0158341, Final residual = 1.6379e-07, No Iterations 5
diagonal:  Solving for rho, Initial residual = 0, Final residual = 0, No Iterations 0
time step continuity errors : sum local = 6.85341e-09, global = 2.79342e-10, cumulative = 1.36642e-06
GAMGPCG:  Solving for p_rgh, Initial residual = 0.00277173, Final residual = 2.68677e-07, No Iterations 4
diagonal:  Solving for rho, Initial residual = 0, Final residual = 0, No Iterations 0
time step continuity errors : sum local = 1.0458e-08, global = 1.42703e-09, cumulative = 1.36785e-06
DILUPBiCGStab:  Solving for omega, Initial residual = 8.97492e-05, Final residual = 2.48379e-09, No Iterations 2
DILUPBiCGStab:  Solving for k, Initial residual = 0.00350973, Final residual = 4.07736e-09, No Iterations 3

ExecutionTime = 292.85 s  ClockTime = 293 s

    Overall     = 0.00128364, 0.01
Time = 2492

diagonal:  Solving for rho, Initial residual = 0, Final residual = 0, No Iterations 0

Execution time for mesh.update() = 0 s

DILUPBiCGStab:  Solving for Ux, Initial residual = 0.00462829, Final residual = 9.44446e-10, No Iterations 3
DILUPBiCGStab:  Solving for Uy, Initial residual = 0.00405923, Final residual = 1.12159e-09, No Iterations 3
DILUPBiCGStab:  Solving for O2, Initial residual = 0.00175056, Final residual = 3.69027e-09, No Iterations 3
DILUPBiCGStab:  Solving for H2O, Initial residual = 0.00175053, Final residual = 3.69044e-09, No Iterations 3
DILUPBiCGStab:  Solving for CH4, Initial residual = 0, Final residual = 0, No Iterations 0
DILUPBiCGStab:  Solving for CO2, Initial residual = 0.00175053, Final residual = 3.69044e-09, No Iterations 3
DILUPBiCGStab:  Solving for h, Initial residual = 0.00191016, Final residual = 3.93997e-09, No Iterations 3
min/max(T) = 299.988, 1044.97
GAMGPCG:  Solving for p_rgh, Initial residual = 0.0157434, Final residual = 8.37297e-07, No Iterations 4
diagonal:  Solving for rho, Initial residual = 0, Final residual = 0, No Iterations 0
time step continuity errors : sum local = 3.35773e-08, global = 1.88901e-09, cumulative = 1.36974e-06
GAMGPCG:  Solving for p_rgh, Initial residual = 0.00281177, Final residual = 2.94218e-07, No Iterations 4
diagonal:  Solving for rho, Initial residual = 0, Final residual = 0, No Iterations 0
time step continuity errors : sum local = 1.14363e-08, global = 1.29139e-09, cumulative = 1.37103e-06
DILUPBiCGStab:  Solving for omega, Initial residual = 8.87746e-05, Final residual = 2.47858e-09, No Iterations 2
DILUPBiCGStab:  Solving for k, Initial residual = 0.00349006, Final residual = 4.25178e-09, No Iterations 3

ExecutionTime = 292.97 s  ClockTime = 293 s

    Overall     = 0.00128037, 0.01
Time = 2493

diagonal:  Solving for rho, Initial residual = 0, Final residual = 0, No Iterations 0

Execution time for mesh.update() = 0 s

DILUPBiCGStab:  Solving for Ux, Initial residual = 0.00462552, Final residual = 9.06029e-10, No Iterations 3
DILUPBiCGStab:  Solving for Uy, Initial residual = 0.00404098, Final residual = 1.37734e-09, No Iterations 3
DILUPBiCGStab:  Solving for O2, Initial residual = 0.00173938, Final residual = 7.02912e-09, No Iterations 3
DILUPBiCGStab:  Solving for H2O, Initial residual = 0.0017394, Final residual = 7.02901e-09, No Iterations 3
DILUPBiCGStab:  Solving for CH4, Initial residual = 0, Final residual = 0, No Iterations 0
DILUPBiCGStab:  Solving for CO2, Initial residual = 0.0017394, Final residual = 7.02901e-09, No Iterations 3
DILUPBiCGStab:  Solving for h, Initial residual = 0.00189568, Final residual = 6.5538e-09, No Iterations 3
min/max(T) = 299.96, 1044.97
GAMGPCG:  Solving for p_rgh, Initial residual = 0.0157998, Final residual = 1.53302e-07, No Iterations 5
diagonal:  Solving for rho, Initial residual = 0, Final residual = 0, No Iterations 0
time step continuity errors : sum local = 6.60908e-09, global = 5.97197e-10, cumulative = 1.37163e-06
GAMGPCG:  Solving for p_rgh, Initial residual = 0.0028354, Final residual = 3.22116e-07, No Iterations 4
diagonal:  Solving for rho, Initial residual = 0, Final residual = 0, No Iterations 0
time step continuity errors : sum local = 1.25537e-08, global = 3.9395e-10, cumulative = 1.37202e-06
DILUPBiCGStab:  Solving for omega, Initial residual = 8.7988e-05, Final residual = 2.54146e-09, No Iterations 2
DILUPBiCGStab:  Solving for k, Initial residual = 0.00347403, Final residual = 4.79189e-09, No Iterations 3

ExecutionTime = 293.09 s  ClockTime = 294 s

    Overall     = 0.00128456, 0.01
Time = 2494

diagonal:  Solving for rho, Initial residual = 0, Final residual = 0, No Iterations 0

Execution time for mesh.update() = 0 s

DILUPBiCGStab:  Solving for Ux, Initial residual = 0.00462124, Final residual = 8.68243e-10, No Iterations 3
DILUPBiCGStab:  Solving for Uy, Initial residual = 0.00401507, Final residual = 9.73631e-10, No Iterations 3
DILUPBiCGStab:  Solving for O2, Initial residual = 0.00172964, Final residual = 6.94387e-09, No Iterations 3
DILUPBiCGStab:  Solving for H2O, Initial residual = 0.0017296, Final residual = 6.94513e-09, No Iterations 3
DILUPBiCGStab:  Solving for CH4, Initial residual = 0, Final residual = 0, No Iterations 0
DILUPBiCGStab:  Solving for CO2, Initial residual = 0.0017296, Final residual = 6.94513e-09, No Iterations 3
DILUPBiCGStab:  Solving for h, Initial residual = 0.00188388, Final residual = 6.46334e-09, No Iterations 3
min/max(T) = 299.955, 1044.97
GAMGPCG:  Solving for p_rgh, Initial residual = 0.0152578, Final residual = 1.56049e-07, No Iterations 5
diagonal:  Solving for rho, Initial residual = 0, Final residual = 0, No Iterations 0
time step continuity errors : sum local = 6.73757e-09, global = 8.74541e-10, cumulative = 1.37289e-06
GAMGPCG:  Solving for p_rgh, Initial residual = 0.00282817, Final residual = 3.27037e-07, No Iterations 4
diagonal:  Solving for rho, Initial residual = 0, Final residual = 0, No Iterations 0
time step continuity errors : sum local = 1.27683e-08, global = 4.87727e-10, cumulative = 1.37338e-06
DILUPBiCGStab:  Solving for omega, Initial residual = 8.76651e-05, Final residual = 2.57514e-09, No Iterations 2
DILUPBiCGStab:  Solving for k, Initial residual = 0.00347211, Final residual = 4.47742e-09, No Iterations 3
bounding k, min: -0.000120036 max: 0.042767 average: 0.00401639

ExecutionTime = 293.2 s  ClockTime = 294 s

    Overall     = 0.00128066, 0.01
Time = 2495

diagonal:  Solving for rho, Initial residual = 0, Final residual = 0, No Iterations 0

Execution time for mesh.update() = 0 s

DILUPBiCGStab:  Solving for Ux, Initial residual = 0.00461933, Final residual = 9.47097e-10, No Iterations 3
DILUPBiCGStab:  Solving for Uy, Initial residual = 0.00399289, Final residual = 9.89566e-10, No Iterations 3
DILUPBiCGStab:  Solving for O2, Initial residual = 0.00171662, Final residual = 7.27608e-09, No Iterations 3
DILUPBiCGStab:  Solving for H2O, Initial residual = 0.00171662, Final residual = 7.27591e-09, No Iterations 3
DILUPBiCGStab:  Solving for CH4, Initial residual = 0, Final residual = 0, No Iterations 0
DILUPBiCGStab:  Solving for CO2, Initial residual = 0.00171662, Final residual = 7.27591e-09, No Iterations 3
DILUPBiCGStab:  Solving for h, Initial residual = 0.00186756, Final residual = 6.40639e-09, No Iterations 3
min/max(T) = 299.956, 1044.97
GAMGPCG:  Solving for p_rgh, Initial residual = 0.0151228, Final residual = 1.30215e-07, No Iterations 5
diagonal:  Solving for rho, Initial residual = 0, Final residual = 0, No Iterations 0
time step continuity errors : sum local = 5.60868e-09, global = 6.41178e-10, cumulative = 1.37402e-06
GAMGPCG:  Solving for p_rgh, Initial residual = 0.00280952, Final residual = 3.2424e-07, No Iterations 4
diagonal:  Solving for rho, Initial residual = 0, Final residual = 0, No Iterations 0
time step continuity errors : sum local = 1.27181e-08, global = 3.6041e-10, cumulative = 1.37438e-06
DILUPBiCGStab:  Solving for omega, Initial residual = 8.7943e-05, Final residual = 2.61939e-09, No Iterations 2
DILUPBiCGStab:  Solving for k, Initial residual = 0.00346976, Final residual = 4.20992e-09, No Iterations 3

ExecutionTime = 293.33 s  ClockTime = 294 s

    Overall     = 0.00128452, 0.01
Time = 2496

diagonal:  Solving for rho, Initial residual = 0, Final residual = 0, No Iterations 0

Execution time for mesh.update() = 0 s

DILUPBiCGStab:  Solving for Ux, Initial residual = 0.00461499, Final residual = 1.12141e-09, No Iterations 3
DILUPBiCGStab:  Solving for Uy, Initial residual = 0.00396699, Final residual = 1.00539e-09, No Iterations 3
DILUPBiCGStab:  Solving for O2, Initial residual = 0.0017105, Final residual = 4.1244e-09, No Iterations 3
DILUPBiCGStab:  Solving for H2O, Initial residual = 0.00171047, Final residual = 4.125e-09, No Iterations 3
DILUPBiCGStab:  Solving for CH4, Initial residual = 0, Final residual = 0, No Iterations 0
DILUPBiCGStab:  Solving for CO2, Initial residual = 0.00171047, Final residual = 4.125e-09, No Iterations 3
DILUPBiCGStab:  Solving for h, Initial residual = 0.00186089, Final residual = 6.56653e-09, No Iterations 3
min/max(T) = 299.982, 1044.97
GAMGPCG:  Solving for p_rgh, Initial residual = 0.0150015, Final residual = 1.56434e-07, No Iterations 5
diagonal:  Solving for rho, Initial residual = 0, Final residual = 0, No Iterations 0
time step continuity errors : sum local = 6.75924e-09, global = 8.57427e-10, cumulative = 1.37524e-06
GAMGPCG:  Solving for p_rgh, Initial residual = 0.0028132, Final residual = 3.44403e-07, No Iterations 4
diagonal:  Solving for rho, Initial residual = 0, Final residual = 0, No Iterations 0
time step continuity errors : sum local = 1.35166e-08, global = -2.04674e-10, cumulative = 1.37504e-06
DILUPBiCGStab:  Solving for omega, Initial residual = 8.78005e-05, Final residual = 2.60254e-09, No Iterations 2
DILUPBiCGStab:  Solving for k, Initial residual = 0.00346766, Final residual = 3.76416e-09, No Iterations 3

ExecutionTime = 293.44 s  ClockTime = 294 s

    Overall     = 0.00128006, 0.01
Time = 2497

diagonal:  Solving for rho, Initial residual = 0, Final residual = 0, No Iterations 0

Execution time for mesh.update() = 0 s

DILUPBiCGStab:  Solving for Ux, Initial residual = 0.00461695, Final residual = 1.13473e-09, No Iterations 3
DILUPBiCGStab:  Solving for Uy, Initial residual = 0.00394362, Final residual = 1.07521e-09, No Iterations 3
DILUPBiCGStab:  Solving for O2, Initial residual = 0.00169946, Final residual = 3.20349e-09, No Iterations 3
DILUPBiCGStab:  Solving for H2O, Initial residual = 0.00169948, Final residual = 3.20349e-09, No Iterations 3
DILUPBiCGStab:  Solving for CH4, Initial residual = 0, Final residual = 0, No Iterations 0
DILUPBiCGStab:  Solving for CO2, Initial residual = 0.00169948, Final residual = 3.20349e-09, No Iterations 3
DILUPBiCGStab:  Solving for h, Initial residual = 0.00184655, Final residual = 3.51366e-09, No Iterations 3
min/max(T) = 299.965, 1044.97
GAMGPCG:  Solving for p_rgh, Initial residual = 0.014897, Final residual = 1.39968e-07, No Iterations 5
diagonal:  Solving for rho, Initial residual = 0, Final residual = 0, No Iterations 0
time step continuity errors : sum local = 6.0916e-09, global = 6.79857e-10, cumulative = 1.37572e-06
GAMGPCG:  Solving for p_rgh, Initial residual = 0.00280775, Final residual = 3.49423e-07, No Iterations 4
diagonal:  Solving for rho, Initial residual = 0, Final residual = 0, No Iterations 0
time step continuity errors : sum local = 1.37523e-08, global = 1.76265e-10, cumulative = 1.37589e-06
DILUPBiCGStab:  Solving for omega, Initial residual = 8.78477e-05, Final residual = 2.29471e-09, No Iterations 2
DILUPBiCGStab:  Solving for k, Initial residual = 0.00346798, Final residual = 4.47656e-09, No Iterations 3

ExecutionTime = 293.56 s  ClockTime = 294 s

    Overall     = 0.00128336, 0.01
Time = 2498

diagonal:  Solving for rho, Initial residual = 0, Final residual = 0, No Iterations 0

Execution time for mesh.update() = 0 s

DILUPBiCGStab:  Solving for Ux, Initial residual = 0.00461626, Final residual = 1.01909e-09, No Iterations 3
DILUPBiCGStab:  Solving for Uy, Initial residual = 0.00393627, Final residual = 9.67719e-09, No Iterations 3
DILUPBiCGStab:  Solving for O2, Initial residual = 0.00169824, Final residual = 3.02488e-09, No Iterations 3
DILUPBiCGStab:  Solving for H2O, Initial residual = 0.00169822, Final residual = 3.02488e-09, No Iterations 3
DILUPBiCGStab:  Solving for CH4, Initial residual = 0, Final residual = 0, No Iterations 0
DILUPBiCGStab:  Solving for CO2, Initial residual = 0.00169822, Final residual = 3.02488e-09, No Iterations 3
DILUPBiCGStab:  Solving for h, Initial residual = 0.00184524, Final residual = 2.89449e-09, No Iterations 3
min/max(T) = 299.987, 1044.97
GAMGPCG:  Solving for p_rgh, Initial residual = 0.015018, Final residual = 1.66752e-07, No Iterations 5
diagonal:  Solving for rho, Initial residual = 0, Final residual = 0, No Iterations 0
time step continuity errors : sum local = 7.19904e-09, global = 6.48675e-10, cumulative = 1.37654e-06
GAMGPCG:  Solving for p_rgh, Initial residual = 0.00278481, Final residual = 3.78885e-07, No Iterations 4
diagonal:  Solving for rho, Initial residual = 0, Final residual = 0, No Iterations 0
time step continuity errors : sum local = 1.48539e-08, global = 5.49503e-10, cumulative = 1.37709e-06
DILUPBiCGStab:  Solving for omega, Initial residual = 8.80611e-05, Final residual = 1.9296e-09, No Iterations 2
DILUPBiCGStab:  Solving for k, Initial residual = 0.003464, Final residual = 6.73736e-09, No Iterations 3
bounding k, min: -2.6062e-06 max: 0.0418548 average: 0.00401135

ExecutionTime = 293.68 s  ClockTime = 294 s

    Overall     = 0.0012784, 0.01
Time = 2499

diagonal:  Solving for rho, Initial residual = 0, Final residual = 0, No Iterations 0

Execution time for mesh.update() = 0 s

DILUPBiCGStab:  Solving for Ux, Initial residual = 0.00461637, Final residual = 9.19919e-10, No Iterations 3
DILUPBiCGStab:  Solving for Uy, Initial residual = 0.00392047, Final residual = 9.60781e-09, No Iterations 3
DILUPBiCGStab:  Solving for O2, Initial residual = 0.00168965, Final residual = 3.36567e-09, No Iterations 3
DILUPBiCGStab:  Solving for H2O, Initial residual = 0.00168965, Final residual = 3.36567e-09, No Iterations 3
DILUPBiCGStab:  Solving for CH4, Initial residual = 0, Final residual = 0, No Iterations 0
DILUPBiCGStab:  Solving for CO2, Initial residual = 0.00168965, Final residual = 3.36567e-09, No Iterations 3
DILUPBiCGStab:  Solving for h, Initial residual = 0.00183495, Final residual = 3.30207e-09, No Iterations 3
min/max(T) = 299.985, 1044.97
GAMGPCG:  Solving for p_rgh, Initial residual = 0.0148297, Final residual = 1.94817e-07, No Iterations 5
diagonal:  Solving for rho, Initial residual = 0, Final residual = 0, No Iterations 0
time step continuity errors : sum local = 8.37666e-09, global = 5.94331e-10, cumulative = 1.37768e-06
GAMGPCG:  Solving for p_rgh, Initial residual = 0.00278268, Final residual = 3.92548e-07, No Iterations 4
diagonal:  Solving for rho, Initial residual = 0, Final residual = 0, No Iterations 0
time step continuity errors : sum local = 1.54377e-08, global = 4.30565e-10, cumulative = 1.37811e-06
DILUPBiCGStab:  Solving for omega, Initial residual = 8.82015e-05, Final residual = 1.75994e-09, No Iterations 2
DILUPBiCGStab:  Solving for k, Initial residual = 0.00347596, Final residual = 3.19864e-11, No Iterations 4

ExecutionTime = 293.8 s  ClockTime = 294 s

    Overall     = 0.00128098, 0.01
Time = 2500

diagonal:  Solving for rho, Initial residual = 0, Final residual = 0, No Iterations 0

Execution time for mesh.update() = 0 s

DILUPBiCGStab:  Solving for Ux, Initial residual = 0.00462422, Final residual = 8.25269e-09, No Iterations 3
DILUPBiCGStab:  Solving for Uy, Initial residual = 0.00392428, Final residual = 9.38323e-09, No Iterations 3
GAMGPCG:  Solving for G, Initial residual = 0.106097, Final residual = 9.15975e-05, No Iterations 5
DILUPBiCGStab:  Solving for O2, Initial residual = 0.00169013, Final residual = 3.53151e-09, No Iterations 3
DILUPBiCGStab:  Solving for H2O, Initial residual = 0.00169013, Final residual = 3.53151e-09, No Iterations 3
DILUPBiCGStab:  Solving for CH4, Initial residual = 0, Final residual = 0, No Iterations 0
DILUPBiCGStab:  Solving for CO2, Initial residual = 0.00169013, Final residual = 3.53151e-09, No Iterations 3
DILUPBiCGStab:  Solving for h, Initial residual = 0.00183673, Final residual = 3.38017e-09, No Iterations 3
min/max(T) = 300, 1044.97
GAMGPCG:  Solving for p_rgh, Initial residual = 0.0151163, Final residual = 1.31126e-07, No Iterations 5
diagonal:  Solving for rho, Initial residual = 0, Final residual = 0, No Iterations 0
time step continuity errors : sum local = 5.58357e-09, global = 7.14197e-10, cumulative = 1.37883e-06
GAMGPCG:  Solving for p_rgh, Initial residual = 0.0027743, Final residual = 4.14134e-07, No Iterations 4
diagonal:  Solving for rho, Initial residual = 0, Final residual = 0, No Iterations 0
time step continuity errors : sum local = 1.61769e-08, global = 1.69244e-09, cumulative = 1.38052e-06
DILUPBiCGStab:  Solving for omega, Initial residual = 8.83801e-05, Final residual = 1.94476e-09, No Iterations 2
DILUPBiCGStab:  Solving for k, Initial residual = 0.00347432, Final residual = 6.78397e-09, No Iterations 3

ExecutionTime = 294.05 s  ClockTime = 295 s


Patch Mean : 302.801
Patch Variance : 0.000441242
Patch Gradient : 0.19648
End
