/*---------------------------------------------------------------------------*\
  =========                 |
  \\      /  F ield         | OpenFOAM: The Open Source CFD Toolbox
   \\    /   O peration     | Website:  https://openfoam.org
    \\  /    A nd           | Version:  dev
     \\/     M anipulation  |
\*---------------------------------------------------------------------------*/
Build  : dev-cabe48fb62c1
Exec   : fireDyMFoam
Date   : Apr 15 2019
Time   : 12:37:53
Host   : "Host"
PID    : 1083
I/O    : uncollated
Case   : /home/tesla/OpenFOAM/tesla-dev/run/rollerOpt_COBYLA_NEW
nProcs : 1
sigFpe : Enabling floating point exception trapping (FOAM_SIGFPE).
fileModificationChecking : Monitoring run-time modified files using timeStampMaster (fileModificationSkew 10)
allowSystemOperations : Allowing user-supplied system call operations

// * * * * * * * * * * * * * * * * * * * * * * * * * * * * * * * * * * * * * //
Create time

--> FOAM Warning : 
    From function void* Foam::dlOpen(const Foam::fileName&, bool)
    in file POSIX.C at line 1268
    dlopen error : libgroovyBC.so: cannot open shared object file: No such file or directory
--> FOAM Warning : 
    From function bool Foam::dlLibraryTable::open(const Foam::fileName&, bool)
    in file db/dynamicLibrary/dlLibraryTable/dlLibraryTable.C at line 105
    could not load "libgroovyBC.so"
Create mesh for time = 250

Selecting dynamicFvMesh dynamicRefineFvMesh
Detected 536 cells that are protected from refinement. Writing these to cellSet protectedCells.

PIMPLE: No convergence criteria found


PIMPLE: Operating solver in PISO mode


Initializing Solver

Selecting thermodynamics package 
{
    type            hePsiThermo;
    mixture         reactingMixture;
    transport       sutherland;
    thermo          janaf;
    energy          sensibleEnthalpy;
    equationOfState perfectGas;
    specie          specie;
}

Selecting chemistryReader foamChemistryReader
    elements not defined in "/home/tesla/OpenFOAM/tesla-dev/run/rollerOpt_COBYLA_NEW/constant/reactions"
Reading/calculating face flux field phi

No MRF models present

Selecting turbulence model type RAS
Selecting RAS turbulence model kOmegaSST
Selecting patchDistMethod meshWave
kOmegaSSTCoeffs
{
    delta           cubeRootVol;
    cubeRootVolCoeffs
    {
        deltaCoeff      1;
    }
    alphaK1         0.85;
    alphaK2         1;
    alphaOmega1     0.5;
    alphaOmega2     0.856;
    gamma1          0.555556;
    gamma2          0.44;
    beta1           0.075;
    beta2           0.0828;
    betaStar        0.09;
    a1              0.31;
    b1              1;
    c1              10;
    F3              false;
}

Selecting combustion model none<psiThermoCombustion>
--> FOAM Warning : 
    From function static Foam::autoPtr<T> Foam::combustionModel::New(typename CombustionModel::reactionThermo&, const Foam::compressibleTurbulenceModel&, const Foam::word&) [with CombustionModel = Foam::CombustionModel<Foam::psiReactionThermo>; typename CombustionModel::reactionThermo = Foam::psiReactionThermo]
    in file /home/tesla/OpenFOAM/OpenFOAM-dev/src/combustionModels/lnInclude/combustionModelTemplates.C at line 69
    Template parameters are no longer required when selecting a combustionModel. This information is now obtained directly from the thermodynamics. Actually selecting combustion model none.

Reading g

Reading hRef
Calculating field g.h


Reading pRef
Selecting radiationModel P1
Selecting absorptionEmissionModel greyMeanAbsorptionEmission
Selecting scatterModel none
Selecting sootModel none
Creating finite volume options from "system/fvOptions"

No finite volume options present
Using LTS

Starting time loop

Using dynamicCode for functionObject patchCalcs at line 64 in "/home/tesla/OpenFOAM/tesla-dev/run/rollerOpt_COBYLA_NEW/system/controlDict.functions.patchCalcs"
    Overall     = 0.00141914, 0.01
Time = 251

diagonal:  Solving for rho, Initial residual = 0, Final residual = 0, No Iterations 0

Execution time for mesh.update() = 0 s

DILUPBiCGStab:  Solving for Ux, Initial residual = 0.00571599, Final residual = 6.9192e-09, No Iterations 3
DILUPBiCGStab:  Solving for Uy, Initial residual = 0.00893082, Final residual = 1.14872e-09, No Iterations 3
GAMGPCG:  Solving for G, Initial residual = 0.0373263, Final residual = 4.83992e-05, No Iterations 4
DILUPBiCGStab:  Solving for O2, Initial residual = 0.0034803, Final residual = 3.06484e-09, No Iterations 3
DILUPBiCGStab:  Solving for H2O, Initial residual = 0.0034803, Final residual = 3.06478e-09, No Iterations 3
DILUPBiCGStab:  Solving for CH4, Initial residual = 0, Final residual = 0, No Iterations 0
DILUPBiCGStab:  Solving for CO2, Initial residual = 0.0034803, Final residual = 3.06478e-09, No Iterations 3
DILUPBiCGStab:  Solving for h, Initial residual = 0.0038414, Final residual = 3.2413e-09, No Iterations 3
min/max(T) = 300, 1044.97
GAMGPCG:  Solving for p_rgh, Initial residual = 0.0234122, Final residual = 8.246e-07, No Iterations 4
diagonal:  Solving for rho, Initial residual = 0, Final residual = 0, No Iterations 0
time step continuity errors : sum local = 2.47554e-06, global = -8.57026e-08, cumulative = -8.57026e-08
GAMGPCG:  Solving for p_rgh, Initial residual = 0.00347449, Final residual = 3.16403e-07, No Iterations 4
diagonal:  Solving for rho, Initial residual = 0, Final residual = 0, No Iterations 0
time step continuity errors : sum local = 2.46327e-06, global = -8.28842e-08, cumulative = -1.68587e-07
DILUPBiCGStab:  Solving for omega, Initial residual = 0.00013794, Final residual = 2.78839e-09, No Iterations 2
DILUPBiCGStab:  Solving for k, Initial residual = 0.00632466, Final residual = 3.61287e-09, No Iterations 3

ExecutionTime = 0.37 s  ClockTime = 0 s

    Overall     = 0.00141361, 0.01
Time = 252

diagonal:  Solving for rho, Initial residual = 0, Final residual = 0, No Iterations 0

Execution time for mesh.update() = 0 s

DILUPBiCGStab:  Solving for Ux, Initial residual = 0.00570734, Final residual = 7.07897e-09, No Iterations 3
DILUPBiCGStab:  Solving for Uy, Initial residual = 0.00889687, Final residual = 1.04453e-09, No Iterations 3
DILUPBiCGStab:  Solving for O2, Initial residual = 0.00349026, Final residual = 3.11149e-09, No Iterations 3
DILUPBiCGStab:  Solving for H2O, Initial residual = 0.00349027, Final residual = 3.11129e-09, No Iterations 3
DILUPBiCGStab:  Solving for CH4, Initial residual = 0, Final residual = 0, No Iterations 0
DILUPBiCGStab:  Solving for CO2, Initial residual = 0.00349027, Final residual = 3.11129e-09, No Iterations 3
DILUPBiCGStab:  Solving for h, Initial residual = 0.00385596, Final residual = 3.62249e-09, No Iterations 3
min/max(T) = 300, 1044.97
GAMGPCG:  Solving for p_rgh, Initial residual = 0.0233865, Final residual = 1.14181e-07, No Iterations 5
diagonal:  Solving for rho, Initial residual = 0, Final residual = 0, No Iterations 0
time step continuity errors : sum local = 6.31915e-09, global = -2.2992e-10, cumulative = -1.68817e-07
GAMGPCG:  Solving for p_rgh, Initial residual = 0.00345286, Final residual = 3.13338e-07, No Iterations 4
diagonal:  Solving for rho, Initial residual = 0, Final residual = 0, No Iterations 0
time step continuity errors : sum local = 1.61766e-08, global = 8.45877e-10, cumulative = -1.67971e-07
DILUPBiCGStab:  Solving for omega, Initial residual = 0.000138216, Final residual = 2.68485e-09, No Iterations 2
DILUPBiCGStab:  Solving for k, Initial residual = 0.00632624, Final residual = 3.60629e-09, No Iterations 3

ExecutionTime = 0.49 s  ClockTime = 0 s

    Overall     = 0.00140839, 0.01
Time = 253

diagonal:  Solving for rho, Initial residual = 0, Final residual = 0, No Iterations 0

Execution time for mesh.update() = 0 s

DILUPBiCGStab:  Solving for Ux, Initial residual = 0.00570068, Final residual = 6.4734e-09, No Iterations 3
DILUPBiCGStab:  Solving for Uy, Initial residual = 0.00883249, Final residual = 8.98132e-10, No Iterations 3
DILUPBiCGStab:  Solving for O2, Initial residual = 0.00350239, Final residual = 3.24901e-09, No Iterations 3
DILUPBiCGStab:  Solving for H2O, Initial residual = 0.0035024, Final residual = 3.24882e-09, No Iterations 3
DILUPBiCGStab:  Solving for CH4, Initial residual = 0, Final residual = 0, No Iterations 0
DILUPBiCGStab:  Solving for CO2, Initial residual = 0.0035024, Final residual = 3.24883e-09, No Iterations 3
DILUPBiCGStab:  Solving for h, Initial residual = 0.00387115, Final residual = 3.48836e-09, No Iterations 3
min/max(T) = 300, 1044.97
GAMGPCG:  Solving for p_rgh, Initial residual = 0.0232698, Final residual = 1.34962e-07, No Iterations 5
diagonal:  Solving for rho, Initial residual = 0, Final residual = 0, No Iterations 0
time step continuity errors : sum local = 7.39161e-09, global = -4.36815e-10, cumulative = -1.68408e-07
GAMGPCG:  Solving for p_rgh, Initial residual = 0.00339447, Final residual = 2.8546e-07, No Iterations 4
diagonal:  Solving for rho, Initial residual = 0, Final residual = 0, No Iterations 0
time step continuity errors : sum local = 1.46799e-08, global = 6.27899e-10, cumulative = -1.6778e-07
DILUPBiCGStab:  Solving for omega, Initial residual = 0.000137734, Final residual = 2.38085e-09, No Iterations 2
DILUPBiCGStab:  Solving for k, Initial residual = 0.00633066, Final residual = 3.45644e-09, No Iterations 3

ExecutionTime = 0.61 s  ClockTime = 0 s

    Overall     = 0.00140411, 0.01
Time = 254

diagonal:  Solving for rho, Initial residual = 0, Final residual = 0, No Iterations 0

Execution time for mesh.update() = 0 s

DILUPBiCGStab:  Solving for Ux, Initial residual = 0.0057005, Final residual = 5.97731e-09, No Iterations 3
DILUPBiCGStab:  Solving for Uy, Initial residual = 0.00878501, Final residual = 9.00989e-10, No Iterations 3
DILUPBiCGStab:  Solving for O2, Initial residual = 0.00350021, Final residual = 2.9773e-09, No Iterations 3
DILUPBiCGStab:  Solving for H2O, Initial residual = 0.00350023, Final residual = 2.97719e-09, No Iterations 3
DILUPBiCGStab:  Solving for CH4, Initial residual = 0, Final residual = 0, No Iterations 0
DILUPBiCGStab:  Solving for CO2, Initial residual = 0.00350023, Final residual = 2.97719e-09, No Iterations 3
DILUPBiCGStab:  Solving for h, Initial residual = 0.00387166, Final residual = 2.93043e-09, No Iterations 3
min/max(T) = 300, 1044.97
GAMGPCG:  Solving for p_rgh, Initial residual = 0.0225493, Final residual = 1.25871e-07, No Iterations 5
diagonal:  Solving for rho, Initial residual = 0, Final residual = 0, No Iterations 0
time step continuity errors : sum local = 6.83066e-09, global = -5.11711e-10, cumulative = -1.68291e-07
GAMGPCG:  Solving for p_rgh, Initial residual = 0.00350601, Final residual = 3.0285e-07, No Iterations 4
diagonal:  Solving for rho, Initial residual = 0, Final residual = 0, No Iterations 0
time step continuity errors : sum local = 1.55268e-08, global = 1.09541e-09, cumulative = -1.67196e-07
DILUPBiCGStab:  Solving for omega, Initial residual = 0.000139104, Final residual = 2.31068e-09, No Iterations 2
DILUPBiCGStab:  Solving for k, Initial residual = 0.00633346, Final residual = 3.28335e-11, No Iterations 4

ExecutionTime = 0.73 s  ClockTime = 1 s

    Overall     = 0.00140032, 0.01
Time = 255

diagonal:  Solving for rho, Initial residual = 0, Final residual = 0, No Iterations 0

Execution time for mesh.update() = 0 s

DILUPBiCGStab:  Solving for Ux, Initial residual = 0.00568374, Final residual = 5.52212e-09, No Iterations 3
DILUPBiCGStab:  Solving for Uy, Initial residual = 0.00869183, Final residual = 9.52929e-09, No Iterations 3
DILUPBiCGStab:  Solving for O2, Initial residual = 0.00350858, Final residual = 3.15065e-09, No Iterations 3
DILUPBiCGStab:  Solving for H2O, Initial residual = 0.00350859, Final residual = 3.15058e-09, No Iterations 3
DILUPBiCGStab:  Solving for CH4, Initial residual = 0, Final residual = 0, No Iterations 0
DILUPBiCGStab:  Solving for CO2, Initial residual = 0.00350859, Final residual = 3.15059e-09, No Iterations 3
DILUPBiCGStab:  Solving for h, Initial residual = 0.00388591, Final residual = 3.0271e-09, No Iterations 3
min/max(T) = 300, 1044.97
GAMGPCG:  Solving for p_rgh, Initial residual = 0.0223788, Final residual = 9.38775e-07, No Iterations 4
diagonal:  Solving for rho, Initial residual = 0, Final residual = 0, No Iterations 0
time step continuity errors : sum local = 5.1724e-08, global = 1.43093e-09, cumulative = -1.65765e-07
GAMGPCG:  Solving for p_rgh, Initial residual = 0.00336778, Final residual = 3.02301e-07, No Iterations 4
diagonal:  Solving for rho, Initial residual = 0, Final residual = 0, No Iterations 0
time step continuity errors : sum local = 1.54107e-08, global = 1.28529e-09, cumulative = -1.6448e-07
DILUPBiCGStab:  Solving for omega, Initial residual = 0.000137572, Final residual = 2.25831e-09, No Iterations 2
DILUPBiCGStab:  Solving for k, Initial residual = 0.00633744, Final residual = 9.40237e-10, No Iterations 3

ExecutionTime = 0.84 s  ClockTime = 1 s

    Overall     = 0.00139636, 0.01
Time = 256

diagonal:  Solving for rho, Initial residual = 0, Final residual = 0, No Iterations 0

Execution time for mesh.update() = 0 s

DILUPBiCGStab:  Solving for Ux, Initial residual = 0.00568905, Final residual = 5.75913e-09, No Iterations 3
DILUPBiCGStab:  Solving for Uy, Initial residual = 0.00864235, Final residual = 8.39864e-09, No Iterations 3
DILUPBiCGStab:  Solving for O2, Initial residual = 0.00352387, Final residual = 3.12089e-09, No Iterations 3
DILUPBiCGStab:  Solving for H2O, Initial residual = 0.00352388, Final residual = 3.12085e-09, No Iterations 3
DILUPBiCGStab:  Solving for CH4, Initial residual = 0, Final residual = 0, No Iterations 0
DILUPBiCGStab:  Solving for CO2, Initial residual = 0.00352388, Final residual = 3.12085e-09, No Iterations 3
DILUPBiCGStab:  Solving for h, Initial residual = 0.00391053, Final residual = 2.99189e-09, No Iterations 3
min/max(T) = 300, 1044.97
GAMGPCG:  Solving for p_rgh, Initial residual = 0.0227008, Final residual = 1.37064e-07, No Iterations 5
diagonal:  Solving for rho, Initial residual = 0, Final residual = 0, No Iterations 0
time step continuity errors : sum local = 7.26011e-09, global = -6.61862e-10, cumulative = -1.65142e-07
GAMGPCG:  Solving for p_rgh, Initial residual = 0.00346031, Final residual = 2.82675e-07, No Iterations 4
diagonal:  Solving for rho, Initial residual = 0, Final residual = 0, No Iterations 0
time step continuity errors : sum local = 1.44138e-08, global = 1.37012e-09, cumulative = -1.63772e-07
DILUPBiCGStab:  Solving for omega, Initial residual = 0.000137833, Final residual = 2.73383e-09, No Iterations 2
DILUPBiCGStab:  Solving for k, Initial residual = 0.0063483, Final residual = 3.12937e-09, No Iterations 3

ExecutionTime = 0.96 s  ClockTime = 1 s

    Overall     = 0.0013915, 0.01
Time = 257

diagonal:  Solving for rho, Initial residual = 0, Final residual = 0, No Iterations 0

Execution time for mesh.update() = 0 s

DILUPBiCGStab:  Solving for Ux, Initial residual = 0.00569104, Final residual = 5.10264e-09, No Iterations 3
DILUPBiCGStab:  Solving for Uy, Initial residual = 0.00858686, Final residual = 7.58899e-09, No Iterations 3
DILUPBiCGStab:  Solving for O2, Initial residual = 0.00352574, Final residual = 3.13186e-09, No Iterations 3
DILUPBiCGStab:  Solving for H2O, Initial residual = 0.00352575, Final residual = 3.13184e-09, No Iterations 3
DILUPBiCGStab:  Solving for CH4, Initial residual = 0, Final residual = 0, No Iterations 0
DILUPBiCGStab:  Solving for CO2, Initial residual = 0.00352575, Final residual = 3.13184e-09, No Iterations 3
DILUPBiCGStab:  Solving for h, Initial residual = 0.003906, Final residual = 3.00126e-09, No Iterations 3
min/max(T) = 300, 1044.97
GAMGPCG:  Solving for p_rgh, Initial residual = 0.0218188, Final residual = 8.96437e-07, No Iterations 4
diagonal:  Solving for rho, Initial residual = 0, Final residual = 0, No Iterations 0
time step continuity errors : sum local = 4.85639e-08, global = 3.37731e-09, cumulative = -1.60394e-07
GAMGPCG:  Solving for p_rgh, Initial residual = 0.00323342, Final residual = 3.07702e-07, No Iterations 4
diagonal:  Solving for rho, Initial residual = 0, Final residual = 0, No Iterations 0
time step continuity errors : sum local = 1.53853e-08, global = 1.43883e-09, cumulative = -1.58955e-07
DILUPBiCGStab:  Solving for omega, Initial residual = 0.000139156, Final residual = 2.98671e-09, No Iterations 2
DILUPBiCGStab:  Solving for k, Initial residual = 0.00634834, Final residual = 3.0338e-09, No Iterations 3

ExecutionTime = 1.08 s  ClockTime = 1 s

    Overall     = 0.00138954, 0.01
Time = 258

diagonal:  Solving for rho, Initial residual = 0, Final residual = 0, No Iterations 0

Execution time for mesh.update() = 0 s

DILUPBiCGStab:  Solving for Ux, Initial residual = 0.0056939, Final residual = 5.45866e-09, No Iterations 3
DILUPBiCGStab:  Solving for Uy, Initial residual = 0.00851553, Final residual = 7.49721e-09, No Iterations 3
DILUPBiCGStab:  Solving for O2, Initial residual = 0.00353914, Final residual = 3.28343e-09, No Iterations 3
DILUPBiCGStab:  Solving for H2O, Initial residual = 0.00353915, Final residual = 3.28341e-09, No Iterations 3
DILUPBiCGStab:  Solving for CH4, Initial residual = 0, Final residual = 0, No Iterations 0
DILUPBiCGStab:  Solving for CO2, Initial residual = 0.00353915, Final residual = 3.28341e-09, No Iterations 3
DILUPBiCGStab:  Solving for h, Initial residual = 0.00392318, Final residual = 3.06111e-09, No Iterations 3
min/max(T) = 300, 1044.97
GAMGPCG:  Solving for p_rgh, Initial residual = 0.0220555, Final residual = 9.67997e-07, No Iterations 4
diagonal:  Solving for rho, Initial residual = 0, Final residual = 0, No Iterations 0
time step continuity errors : sum local = 5.19697e-08, global = -1.22434e-09, cumulative = -1.6018e-07
GAMGPCG:  Solving for p_rgh, Initial residual = 0.00334067, Final residual = 2.69559e-07, No Iterations 4
diagonal:  Solving for rho, Initial residual = 0, Final residual = 0, No Iterations 0
time step continuity errors : sum local = 1.3563e-08, global = 1.33313e-09, cumulative = -1.58847e-07
DILUPBiCGStab:  Solving for omega, Initial residual = 0.000140168, Final residual = 2.84074e-09, No Iterations 2
DILUPBiCGStab:  Solving for k, Initial residual = 0.00634674, Final residual = 3.16444e-09, No Iterations 3

ExecutionTime = 1.19 s  ClockTime = 1 s

    Overall     = 0.00138855, 0.01
Time = 259

diagonal:  Solving for rho, Initial residual = 0, Final residual = 0, No Iterations 0

Execution time for mesh.update() = 0 s

DILUPBiCGStab:  Solving for Ux, Initial residual = 0.00568002, Final residual = 4.78033e-09, No Iterations 3
DILUPBiCGStab:  Solving for Uy, Initial residual = 0.00845203, Final residual = 7.10357e-09, No Iterations 3
DILUPBiCGStab:  Solving for O2, Initial residual = 0.00354929, Final residual = 3.46249e-09, No Iterations 3
DILUPBiCGStab:  Solving for H2O, Initial residual = 0.00354929, Final residual = 3.46249e-09, No Iterations 3
DILUPBiCGStab:  Solving for CH4, Initial residual = 0, Final residual = 0, No Iterations 0
DILUPBiCGStab:  Solving for CO2, Initial residual = 0.00354929, Final residual = 3.46249e-09, No Iterations 3
DILUPBiCGStab:  Solving for h, Initial residual = 0.00393338, Final residual = 3.20601e-09, No Iterations 3
min/max(T) = 300, 1044.97
GAMGPCG:  Solving for p_rgh, Initial residual = 0.0211184, Final residual = 9.10694e-07, No Iterations 4
diagonal:  Solving for rho, Initial residual = 0, Final residual = 0, No Iterations 0
time step continuity errors : sum local = 4.81309e-08, global = 3.28777e-09, cumulative = -1.55559e-07
GAMGPCG:  Solving for p_rgh, Initial residual = 0.00323811, Final residual = 2.96762e-07, No Iterations 4
diagonal:  Solving for rho, Initial residual = 0, Final residual = 0, No Iterations 0
time step continuity errors : sum local = 1.47737e-08, global = 1.56048e-09, cumulative = -1.53998e-07
DILUPBiCGStab:  Solving for omega, Initial residual = 0.000140313, Final residual = 2.78919e-09, No Iterations 2
DILUPBiCGStab:  Solving for k, Initial residual = 0.0063465, Final residual = 3.37787e-09, No Iterations 3

ExecutionTime = 1.31 s  ClockTime = 1 s

    Overall     = 0.00138908, 0.01
Time = 260

diagonal:  Solving for rho, Initial residual = 0, Final residual = 0, No Iterations 0

Execution time for mesh.update() = 0 s

DILUPBiCGStab:  Solving for Ux, Initial residual = 0.00567241, Final residual = 4.97661e-09, No Iterations 3
DILUPBiCGStab:  Solving for Uy, Initial residual = 0.00837439, Final residual = 7.19803e-09, No Iterations 3
GAMGPCG:  Solving for G, Initial residual = 0.151962, Final residual = 8.60339e-05, No Iterations 5
DILUPBiCGStab:  Solving for O2, Initial residual = 0.00355328, Final residual = 3.30915e-09, No Iterations 3
DILUPBiCGStab:  Solving for H2O, Initial residual = 0.00355328, Final residual = 3.30916e-09, No Iterations 3
DILUPBiCGStab:  Solving for CH4, Initial residual = 0, Final residual = 0, No Iterations 0
DILUPBiCGStab:  Solving for CO2, Initial residual = 0.00355328, Final residual = 3.30916e-09, No Iterations 3
DILUPBiCGStab:  Solving for h, Initial residual = 0.00394183, Final residual = 3.05808e-09, No Iterations 3
min/max(T) = 300, 1044.97
GAMGPCG:  Solving for p_rgh, Initial residual = 0.0209609, Final residual = 8.73495e-07, No Iterations 4
diagonal:  Solving for rho, Initial residual = 0, Final residual = 0, No Iterations 0
time step continuity errors : sum local = 4.65934e-08, global = 3.33643e-09, cumulative = -1.50662e-07
GAMGPCG:  Solving for p_rgh, Initial residual = 0.00310187, Final residual = 2.54067e-07, No Iterations 4
diagonal:  Solving for rho, Initial residual = 0, Final residual = 0, No Iterations 0
time step continuity errors : sum local = 1.26659e-08, global = 1.27215e-09, cumulative = -1.4939e-07
DILUPBiCGStab:  Solving for omega, Initial residual = 0.000140045, Final residual = 2.7596e-09, No Iterations 2
DILUPBiCGStab:  Solving for k, Initial residual = 0.00635498, Final residual = 3.40272e-09, No Iterations 3

ExecutionTime = 1.56 s  ClockTime = 1 s

    Overall     = 0.00139121, 0.01
Time = 261

diagonal:  Solving for rho, Initial residual = 0, Final residual = 0, No Iterations 0

Execution time for mesh.update() = 0.01 s

DILUPBiCGStab:  Solving for Ux, Initial residual = 0.00566733, Final residual = 4.54061e-09, No Iterations 3
DILUPBiCGStab:  Solving for Uy, Initial residual = 0.0083101, Final residual = 6.40179e-09, No Iterations 3
DILUPBiCGStab:  Solving for O2, Initial residual = 0.00356356, Final residual = 3.16531e-09, No Iterations 3
DILUPBiCGStab:  Solving for H2O, Initial residual = 0.00356356, Final residual = 3.16532e-09, No Iterations 3
DILUPBiCGStab:  Solving for CH4, Initial residual = 0, Final residual = 0, No Iterations 0
DILUPBiCGStab:  Solving for CO2, Initial residual = 0.00356356, Final residual = 3.16532e-09, No Iterations 3
DILUPBiCGStab:  Solving for h, Initial residual = 0.0039542, Final residual = 3.01657e-09, No Iterations 3
min/max(T) = 300, 1044.97
GAMGPCG:  Solving for p_rgh, Initial residual = 0.0211324, Final residual = 9.28455e-07, No Iterations 4
diagonal:  Solving for rho, Initial residual = 0, Final residual = 0, No Iterations 0
time step continuity errors : sum local = 4.95036e-08, global = 2.24854e-09, cumulative = -1.47141e-07
GAMGPCG:  Solving for p_rgh, Initial residual = 0.00304113, Final residual = 2.71653e-07, No Iterations 4
diagonal:  Solving for rho, Initial residual = 0, Final residual = 0, No Iterations 0
time step continuity errors : sum local = 1.35797e-08, global = 1.29466e-09, cumulative = -1.45847e-07
DILUPBiCGStab:  Solving for omega, Initial residual = 0.000139714, Final residual = 2.6632e-09, No Iterations 2
DILUPBiCGStab:  Solving for k, Initial residual = 0.00634654, Final residual = 3.45614e-09, No Iterations 3

ExecutionTime = 1.68 s  ClockTime = 2 s

    Overall     = 0.00139467, 0.01
Time = 262

diagonal:  Solving for rho, Initial residual = 0, Final residual = 0, No Iterations 0

Execution time for mesh.update() = 0 s

DILUPBiCGStab:  Solving for Ux, Initial residual = 0.00566441, Final residual = 4.76688e-09, No Iterations 3
DILUPBiCGStab:  Solving for Uy, Initial residual = 0.00823494, Final residual = 6.40574e-09, No Iterations 3
DILUPBiCGStab:  Solving for O2, Initial residual = 0.00356979, Final residual = 3.17357e-09, No Iterations 3
DILUPBiCGStab:  Solving for H2O, Initial residual = 0.00356979, Final residual = 3.1736e-09, No Iterations 3
DILUPBiCGStab:  Solving for CH4, Initial residual = 0, Final residual = 0, No Iterations 0
DILUPBiCGStab:  Solving for CO2, Initial residual = 0.00356979, Final residual = 3.1736e-09, No Iterations 3
DILUPBiCGStab:  Solving for h, Initial residual = 0.00396315, Final residual = 2.93081e-09, No Iterations 3
min/max(T) = 300, 1044.97
GAMGPCG:  Solving for p_rgh, Initial residual = 0.0209793, Final residual = 8.56391e-07, No Iterations 4
diagonal:  Solving for rho, Initial residual = 0, Final residual = 0, No Iterations 0
time step continuity errors : sum local = 4.58435e-08, global = 2.38892e-09, cumulative = -1.43458e-07
GAMGPCG:  Solving for p_rgh, Initial residual = 0.00287889, Final residual = 2.31637e-07, No Iterations 4
diagonal:  Solving for rho, Initial residual = 0, Final residual = 0, No Iterations 0
time step continuity errors : sum local = 1.16407e-08, global = 1.20839e-09, cumulative = -1.42249e-07
DILUPBiCGStab:  Solving for omega, Initial residual = 0.000140288, Final residual = 2.51189e-09, No Iterations 2
DILUPBiCGStab:  Solving for k, Initial residual = 0.00636213, Final residual = 3.35035e-09, No Iterations 3

ExecutionTime = 1.8 s  ClockTime = 2 s

    Overall     = 0.00139892, 0.01
Time = 263

diagonal:  Solving for rho, Initial residual = 0, Final residual = 0, No Iterations 0

Execution time for mesh.update() = 0 s

DILUPBiCGStab:  Solving for Ux, Initial residual = 0.00565346, Final residual = 4.19712e-09, No Iterations 3
DILUPBiCGStab:  Solving for Uy, Initial residual = 0.00820065, Final residual = 6.07406e-09, No Iterations 3
DILUPBiCGStab:  Solving for O2, Initial residual = 0.00358228, Final residual = 3.06768e-09, No Iterations 3
DILUPBiCGStab:  Solving for H2O, Initial residual = 0.00358228, Final residual = 3.06771e-09, No Iterations 3
DILUPBiCGStab:  Solving for CH4, Initial residual = 0, Final residual = 0, No Iterations 0
DILUPBiCGStab:  Solving for CO2, Initial residual = 0.00358228, Final residual = 3.06771e-09, No Iterations 3
DILUPBiCGStab:  Solving for h, Initial residual = 0.00397591, Final residual = 2.86303e-09, No Iterations 3
min/max(T) = 300, 1044.97
GAMGPCG:  Solving for p_rgh, Initial residual = 0.0202461, Final residual = 8.79932e-07, No Iterations 4
diagonal:  Solving for rho, Initial residual = 0, Final residual = 0, No Iterations 0
time step continuity errors : sum local = 4.68537e-08, global = -1.50102e-09, cumulative = -1.4375e-07
GAMGPCG:  Solving for p_rgh, Initial residual = 0.0027918, Final residual = 2.40291e-07, No Iterations 4
diagonal:  Solving for rho, Initial residual = 0, Final residual = 0, No Iterations 0
time step continuity errors : sum local = 1.2003e-08, global = 1.1993e-09, cumulative = -1.42551e-07
DILUPBiCGStab:  Solving for omega, Initial residual = 0.00013974, Final residual = 2.42759e-09, No Iterations 2
DILUPBiCGStab:  Solving for k, Initial residual = 0.00635638, Final residual = 3.05213e-09, No Iterations 3

ExecutionTime = 1.91 s  ClockTime = 2 s

    Overall     = 0.001404, 0.01
Time = 264

diagonal:  Solving for rho, Initial residual = 0, Final residual = 0, No Iterations 0

Execution time for mesh.update() = 0 s

DILUPBiCGStab:  Solving for Ux, Initial residual = 0.0056416, Final residual = 4.69461e-09, No Iterations 3
DILUPBiCGStab:  Solving for Uy, Initial residual = 0.00814968, Final residual = 5.90403e-09, No Iterations 3
DILUPBiCGStab:  Solving for O2, Initial residual = 0.00359474, Final residual = 3.09699e-09, No Iterations 3
DILUPBiCGStab:  Solving for H2O, Initial residual = 0.00359474, Final residual = 3.09702e-09, No Iterations 3
DILUPBiCGStab:  Solving for CH4, Initial residual = 0, Final residual = 0, No Iterations 0
DILUPBiCGStab:  Solving for CO2, Initial residual = 0.00359474, Final residual = 3.09702e-09, No Iterations 3
DILUPBiCGStab:  Solving for h, Initial residual = 0.00398997, Final residual = 2.91089e-09, No Iterations 3
min/max(T) = 300, 1044.97
GAMGPCG:  Solving for p_rgh, Initial residual = 0.020473, Final residual = 8.87282e-07, No Iterations 4
diagonal:  Solving for rho, Initial residual = 0, Final residual = 0, No Iterations 0
time step continuity errors : sum local = 4.70995e-08, global = -3.12456e-09, cumulative = -1.45676e-07
GAMGPCG:  Solving for p_rgh, Initial residual = 0.00277425, Final residual = 2.32141e-07, No Iterations 4
diagonal:  Solving for rho, Initial residual = 0, Final residual = 0, No Iterations 0
time step continuity errors : sum local = 1.16069e-08, global = 1.02214e-09, cumulative = -1.44653e-07
DILUPBiCGStab:  Solving for omega, Initial residual = 0.000139124, Final residual = 2.31993e-09, No Iterations 2
DILUPBiCGStab:  Solving for k, Initial residual = 0.00636261, Final residual = 3.06087e-09, No Iterations 3

ExecutionTime = 2.03 s  ClockTime = 2 s

    Overall     = 0.00140881, 0.01
Time = 265

diagonal:  Solving for rho, Initial residual = 0, Final residual = 0, No Iterations 0

Execution time for mesh.update() = 0 s

DILUPBiCGStab:  Solving for Ux, Initial residual = 0.00562415, Final residual = 4.48207e-09, No Iterations 3
DILUPBiCGStab:  Solving for Uy, Initial residual = 0.00810304, Final residual = 5.7471e-09, No Iterations 3
DILUPBiCGStab:  Solving for O2, Initial residual = 0.00360082, Final residual = 2.89139e-09, No Iterations 3
DILUPBiCGStab:  Solving for H2O, Initial residual = 0.00360083, Final residual = 2.89142e-09, No Iterations 3
DILUPBiCGStab:  Solving for CH4, Initial residual = 0, Final residual = 0, No Iterations 0
DILUPBiCGStab:  Solving for CO2, Initial residual = 0.00360083, Final residual = 2.89142e-09, No Iterations 3
DILUPBiCGStab:  Solving for h, Initial residual = 0.00399704, Final residual = 2.66441e-09, No Iterations 3
min/max(T) = 300, 1044.97
GAMGPCG:  Solving for p_rgh, Initial residual = 0.0198035, Final residual = 9.04544e-07, No Iterations 4
diagonal:  Solving for rho, Initial residual = 0, Final residual = 0, No Iterations 0
time step continuity errors : sum local = 4.81331e-08, global = -2.15788e-09, cumulative = -1.46811e-07
GAMGPCG:  Solving for p_rgh, Initial residual = 0.00275523, Final residual = 2.3104e-07, No Iterations 4
diagonal:  Solving for rho, Initial residual = 0, Final residual = 0, No Iterations 0
time step continuity errors : sum local = 1.15994e-08, global = 4.5896e-10, cumulative = -1.46352e-07
DILUPBiCGStab:  Solving for omega, Initial residual = 0.000140346, Final residual = 2.20203e-09, No Iterations 2
DILUPBiCGStab:  Solving for k, Initial residual = 0.00635119, Final residual = 2.59447e-09, No Iterations 3

ExecutionTime = 2.15 s  ClockTime = 2 s

    Overall     = 0.0014132, 0.01
Time = 266

diagonal:  Solving for rho, Initial residual = 0, Final residual = 0, No Iterations 0

Execution time for mesh.update() = 0 s

DILUPBiCGStab:  Solving for Ux, Initial residual = 0.00561346, Final residual = 4.47111e-09, No Iterations 3
DILUPBiCGStab:  Solving for Uy, Initial residual = 0.00802847, Final residual = 4.99397e-09, No Iterations 3
DILUPBiCGStab:  Solving for O2, Initial residual = 0.00360628, Final residual = 2.84828e-09, No Iterations 3
DILUPBiCGStab:  Solving for H2O, Initial residual = 0.00360628, Final residual = 2.8483e-09, No Iterations 3
DILUPBiCGStab:  Solving for CH4, Initial residual = 0, Final residual = 0, No Iterations 0
DILUPBiCGStab:  Solving for CO2, Initial residual = 0.00360628, Final residual = 2.8483e-09, No Iterations 3
DILUPBiCGStab:  Solving for h, Initial residual = 0.00401062, Final residual = 2.63177e-09, No Iterations 3
min/max(T) = 300, 1044.97
GAMGPCG:  Solving for p_rgh, Initial residual = 0.0199816, Final residual = 1.04398e-07, No Iterations 5
diagonal:  Solving for rho, Initial residual = 0, Final residual = 0, No Iterations 0
time step continuity errors : sum local = 5.58817e-09, global = -4.68467e-10, cumulative = -1.46821e-07
GAMGPCG:  Solving for p_rgh, Initial residual = 0.00266934, Final residual = 2.28111e-07, No Iterations 4
diagonal:  Solving for rho, Initial residual = 0, Final residual = 0, No Iterations 0
time step continuity errors : sum local = 1.14664e-08, global = 3.50784e-10, cumulative = -1.4647e-07
DILUPBiCGStab:  Solving for omega, Initial residual = 0.00013923, Final residual = 2.11417e-09, No Iterations 2
DILUPBiCGStab:  Solving for k, Initial residual = 0.00634543, Final residual = 2.55258e-09, No Iterations 3

ExecutionTime = 2.27 s  ClockTime = 2 s

    Overall     = 0.00141773, 0.01
Time = 267

diagonal:  Solving for rho, Initial residual = 0, Final residual = 0, No Iterations 0

Execution time for mesh.update() = 0 s

DILUPBiCGStab:  Solving for Ux, Initial residual = 0.0056345, Final residual = 4.46569e-09, No Iterations 3
DILUPBiCGStab:  Solving for Uy, Initial residual = 0.00801432, Final residual = 4.74544e-09, No Iterations 3
DILUPBiCGStab:  Solving for O2, Initial residual = 0.00361744, Final residual = 2.6976e-09, No Iterations 3
DILUPBiCGStab:  Solving for H2O, Initial residual = 0.00361744, Final residual = 2.69762e-09, No Iterations 3
DILUPBiCGStab:  Solving for CH4, Initial residual = 0, Final residual = 0, No Iterations 0
DILUPBiCGStab:  Solving for CO2, Initial residual = 0.00361744, Final residual = 2.69762e-09, No Iterations 3
DILUPBiCGStab:  Solving for h, Initial residual = 0.00402644, Final residual = 2.47412e-09, No Iterations 3
min/max(T) = 300, 1044.97
GAMGPCG:  Solving for p_rgh, Initial residual = 0.0200326, Final residual = 9.96676e-07, No Iterations 4
diagonal:  Solving for rho, Initial residual = 0, Final residual = 0, No Iterations 0
time step continuity errors : sum local = 5.29365e-08, global = -4.14587e-09, cumulative = -1.50616e-07
GAMGPCG:  Solving for p_rgh, Initial residual = 0.00271943, Final residual = 2.16711e-07, No Iterations 4
diagonal:  Solving for rho, Initial residual = 0, Final residual = 0, No Iterations 0
time step continuity errors : sum local = 1.10076e-08, global = -1.34377e-10, cumulative = -1.5075e-07
DILUPBiCGStab:  Solving for omega, Initial residual = 0.00013836, Final residual = 1.99841e-09, No Iterations 2
DILUPBiCGStab:  Solving for k, Initial residual = 0.00633401, Final residual = 2.71074e-09, No Iterations 3

ExecutionTime = 2.38 s  ClockTime = 2 s

    Overall     = 0.00142272, 0.01
Time = 268

diagonal:  Solving for rho, Initial residual = 0, Final residual = 0, No Iterations 0

Execution time for mesh.update() = 0 s

DILUPBiCGStab:  Solving for Ux, Initial residual = 0.00566385, Final residual = 4.45186e-09, No Iterations 3
DILUPBiCGStab:  Solving for Uy, Initial residual = 0.00799034, Final residual = 4.85507e-09, No Iterations 3
DILUPBiCGStab:  Solving for O2, Initial residual = 0.00362679, Final residual = 2.64132e-09, No Iterations 3
DILUPBiCGStab:  Solving for H2O, Initial residual = 0.00362679, Final residual = 2.64133e-09, No Iterations 3
DILUPBiCGStab:  Solving for CH4, Initial residual = 0, Final residual = 0, No Iterations 0
DILUPBiCGStab:  Solving for CO2, Initial residual = 0.00362679, Final residual = 2.64133e-09, No Iterations 3
DILUPBiCGStab:  Solving for h, Initial residual = 0.00403709, Final residual = 2.43734e-09, No Iterations 3
min/max(T) = 300, 1044.97
GAMGPCG:  Solving for p_rgh, Initial residual = 0.0203479, Final residual = 1.02485e-07, No Iterations 5
diagonal:  Solving for rho, Initial residual = 0, Final residual = 0, No Iterations 0
time step continuity errors : sum local = 5.55789e-09, global = -6.26722e-10, cumulative = -1.51377e-07
GAMGPCG:  Solving for p_rgh, Initial residual = 0.00264889, Final residual = 1.81973e-07, No Iterations 4
diagonal:  Solving for rho, Initial residual = 0, Final residual = 0, No Iterations 0
time step continuity errors : sum local = 9.23898e-09, global = 2.43951e-10, cumulative = -1.51133e-07
DILUPBiCGStab:  Solving for omega, Initial residual = 0.000138294, Final residual = 1.93866e-09, No Iterations 2
DILUPBiCGStab:  Solving for k, Initial residual = 0.00633781, Final residual = 3.12088e-09, No Iterations 3

ExecutionTime = 2.5 s  ClockTime = 2 s

    Overall     = 0.00142857, 0.01
Time = 269

diagonal:  Solving for rho, Initial residual = 0, Final residual = 0, No Iterations 0

Execution time for mesh.update() = 0 s

DILUPBiCGStab:  Solving for Ux, Initial residual = 0.00564877, Final residual = 4.6043e-09, No Iterations 3
DILUPBiCGStab:  Solving for Uy, Initial residual = 0.00795469, Final residual = 4.70845e-09, No Iterations 3
DILUPBiCGStab:  Solving for O2, Initial residual = 0.00363555, Final residual = 2.69107e-09, No Iterations 3
DILUPBiCGStab:  Solving for H2O, Initial residual = 0.00363555, Final residual = 2.69108e-09, No Iterations 3
DILUPBiCGStab:  Solving for CH4, Initial residual = 0, Final residual = 0, No Iterations 0
DILUPBiCGStab:  Solving for CO2, Initial residual = 0.00363555, Final residual = 2.69108e-09, No Iterations 3
DILUPBiCGStab:  Solving for h, Initial residual = 0.00404866, Final residual = 2.49403e-09, No Iterations 3
min/max(T) = 300, 1044.97
GAMGPCG:  Solving for p_rgh, Initial residual = 0.0198402, Final residual = 9.51157e-07, No Iterations 4
diagonal:  Solving for rho, Initial residual = 0, Final residual = 0, No Iterations 0
time step continuity errors : sum local = 5.0849e-08, global = -2.46462e-09, cumulative = -1.53598e-07
GAMGPCG:  Solving for p_rgh, Initial residual = 0.00263065, Final residual = 1.91891e-07, No Iterations 4
diagonal:  Solving for rho, Initial residual = 0, Final residual = 0, No Iterations 0
time step continuity errors : sum local = 9.62539e-09, global = 4.15771e-10, cumulative = -1.53182e-07
DILUPBiCGStab:  Solving for omega, Initial residual = 0.000137861, Final residual = 1.85396e-09, No Iterations 2
DILUPBiCGStab:  Solving for k, Initial residual = 0.00632978, Final residual = 3.2957e-09, No Iterations 3

ExecutionTime = 2.61 s  ClockTime = 2 s

    Overall     = 0.00143478, 0.01
Time = 270

diagonal:  Solving for rho, Initial residual = 0, Final residual = 0, No Iterations 0

Execution time for mesh.update() = 0 s

DILUPBiCGStab:  Solving for Ux, Initial residual = 0.00563694, Final residual = 4.35874e-09, No Iterations 3
DILUPBiCGStab:  Solving for Uy, Initial residual = 0.00790615, Final residual = 4.7941e-09, No Iterations 3
GAMGPCG:  Solving for G, Initial residual = 0.149907, Final residual = 3.57901e-05, No Iterations 6
DILUPBiCGStab:  Solving for O2, Initial residual = 0.00363693, Final residual = 2.62533e-09, No Iterations 3
DILUPBiCGStab:  Solving for H2O, Initial residual = 0.00363694, Final residual = 2.62534e-09, No Iterations 3
DILUPBiCGStab:  Solving for CH4, Initial residual = 0, Final residual = 0, No Iterations 0
DILUPBiCGStab:  Solving for CO2, Initial residual = 0.00363694, Final residual = 2.62534e-09, No Iterations 3
DILUPBiCGStab:  Solving for h, Initial residual = 0.00405811, Final residual = 2.40303e-09, No Iterations 3
min/max(T) = 300, 1044.97
GAMGPCG:  Solving for p_rgh, Initial residual = 0.0199548, Final residual = 1.04842e-07, No Iterations 5
diagonal:  Solving for rho, Initial residual = 0, Final residual = 0, No Iterations 0
time step continuity errors : sum local = 5.66936e-09, global = -7.93408e-10, cumulative = -1.53975e-07
GAMGPCG:  Solving for p_rgh, Initial residual = 0.00256003, Final residual = 1.91311e-07, No Iterations 4
diagonal:  Solving for rho, Initial residual = 0, Final residual = 0, No Iterations 0
time step continuity errors : sum local = 9.60508e-09, global = 1.67125e-10, cumulative = -1.53808e-07
DILUPBiCGStab:  Solving for omega, Initial residual = 0.000137631, Final residual = 1.8122e-09, No Iterations 2
DILUPBiCGStab:  Solving for k, Initial residual = 0.00630878, Final residual = 3.09296e-09, No Iterations 3

ExecutionTime = 2.88 s  ClockTime = 3 s

    Overall     = 0.00144108, 0.01
Time = 271

diagonal:  Solving for rho, Initial residual = 0, Final residual = 0, No Iterations 0

Execution time for mesh.update() = 0 s

DILUPBiCGStab:  Solving for Ux, Initial residual = 0.00565205, Final residual = 4.54046e-09, No Iterations 3
DILUPBiCGStab:  Solving for Uy, Initial residual = 0.00789758, Final residual = 4.74307e-09, No Iterations 3
DILUPBiCGStab:  Solving for O2, Initial residual = 0.00364609, Final residual = 2.43921e-09, No Iterations 3
DILUPBiCGStab:  Solving for H2O, Initial residual = 0.0036461, Final residual = 2.43922e-09, No Iterations 3
DILUPBiCGStab:  Solving for CH4, Initial residual = 0, Final residual = 0, No Iterations 0
DILUPBiCGStab:  Solving for CO2, Initial residual = 0.0036461, Final residual = 2.43922e-09, No Iterations 3
DILUPBiCGStab:  Solving for h, Initial residual = 0.00407415, Final residual = 2.27347e-09, No Iterations 3
min/max(T) = 300, 1044.97
GAMGPCG:  Solving for p_rgh, Initial residual = 0.0196868, Final residual = 9.53038e-07, No Iterations 4
diagonal:  Solving for rho, Initial residual = 0, Final residual = 0, No Iterations 0
time step continuity errors : sum local = 5.07067e-08, global = -3.45112e-09, cumulative = -1.57259e-07
GAMGPCG:  Solving for p_rgh, Initial residual = 0.00262604, Final residual = 1.9409e-07, No Iterations 4
diagonal:  Solving for rho, Initial residual = 0, Final residual = 0, No Iterations 0
time step continuity errors : sum local = 9.73511e-09, global = 1.57183e-10, cumulative = -1.57102e-07
DILUPBiCGStab:  Solving for omega, Initial residual = 0.000137115, Final residual = 1.72271e-09, No Iterations 2
DILUPBiCGStab:  Solving for k, Initial residual = 0.00629479, Final residual = 2.54616e-09, No Iterations 3

ExecutionTime = 2.99 s  ClockTime = 3 s

    Overall     = 0.00144784, 0.01
Time = 272

diagonal:  Solving for rho, Initial residual = 0, Final residual = 0, No Iterations 0

Execution time for mesh.update() = 0 s

DILUPBiCGStab:  Solving for Ux, Initial residual = 0.0056497, Final residual = 4.42875e-09, No Iterations 3
DILUPBiCGStab:  Solving for Uy, Initial residual = 0.00786818, Final residual = 4.75772e-09, No Iterations 3
DILUPBiCGStab:  Solving for O2, Initial residual = 0.00365611, Final residual = 2.42256e-09, No Iterations 3
DILUPBiCGStab:  Solving for H2O, Initial residual = 0.00365611, Final residual = 2.42257e-09, No Iterations 3
DILUPBiCGStab:  Solving for CH4, Initial residual = 0, Final residual = 0, No Iterations 0
DILUPBiCGStab:  Solving for CO2, Initial residual = 0.00365611, Final residual = 2.42257e-09, No Iterations 3
DILUPBiCGStab:  Solving for h, Initial residual = 0.00408609, Final residual = 2.23105e-09, No Iterations 3
min/max(T) = 300, 1044.97
GAMGPCG:  Solving for p_rgh, Initial residual = 0.0201536, Final residual = 1.26415e-07, No Iterations 5
diagonal:  Solving for rho, Initial residual = 0, Final residual = 0, No Iterations 0
time step continuity errors : sum local = 6.61804e-09, global = -7.71175e-10, cumulative = -1.57873e-07
GAMGPCG:  Solving for p_rgh, Initial residual = 0.0025581, Final residual = 1.82396e-07, No Iterations 4
diagonal:  Solving for rho, Initial residual = 0, Final residual = 0, No Iterations 0
time step continuity errors : sum local = 9.11225e-09, global = 5.22728e-10, cumulative = -1.57351e-07
DILUPBiCGStab:  Solving for omega, Initial residual = 0.000138259, Final residual = 1.67553e-09, No Iterations 2
DILUPBiCGStab:  Solving for k, Initial residual = 0.00627484, Final residual = 2.44318e-09, No Iterations 3

ExecutionTime = 3.11 s  ClockTime = 3 s

    Overall     = 0.00145491, 0.01
Time = 273

diagonal:  Solving for rho, Initial residual = 0, Final residual = 0, No Iterations 0

Execution time for mesh.update() = 0 s

DILUPBiCGStab:  Solving for Ux, Initial residual = 0.00567514, Final residual = 4.37117e-09, No Iterations 3
DILUPBiCGStab:  Solving for Uy, Initial residual = 0.00789407, Final residual = 4.83047e-09, No Iterations 3
DILUPBiCGStab:  Solving for O2, Initial residual = 0.00366447, Final residual = 2.18658e-09, No Iterations 3
DILUPBiCGStab:  Solving for H2O, Initial residual = 0.00366447, Final residual = 2.18659e-09, No Iterations 3
DILUPBiCGStab:  Solving for CH4, Initial residual = 0, Final residual = 0, No Iterations 0
DILUPBiCGStab:  Solving for CO2, Initial residual = 0.00366447, Final residual = 2.18659e-09, No Iterations 3
DILUPBiCGStab:  Solving for h, Initial residual = 0.00409779, Final residual = 2.00254e-09, No Iterations 3
min/max(T) = 300, 1044.97
GAMGPCG:  Solving for p_rgh, Initial residual = 0.0201091, Final residual = 1.27965e-07, No Iterations 5
diagonal:  Solving for rho, Initial residual = 0, Final residual = 0, No Iterations 0
time step continuity errors : sum local = 6.71351e-09, global = -9.46539e-10, cumulative = -1.58297e-07
GAMGPCG:  Solving for p_rgh, Initial residual = 0.00265998, Final residual = 1.70878e-07, No Iterations 4
diagonal:  Solving for rho, Initial residual = 0, Final residual = 0, No Iterations 0
time step continuity errors : sum local = 8.52961e-09, global = 6.97655e-10, cumulative = -1.57599e-07
DILUPBiCGStab:  Solving for omega, Initial residual = 0.000138151, Final residual = 1.60676e-09, No Iterations 2
DILUPBiCGStab:  Solving for k, Initial residual = 0.00626175, Final residual = 2.20875e-09, No Iterations 3

ExecutionTime = 3.23 s  ClockTime = 3 s

    Overall     = 0.00146291, 0.01
Time = 274

diagonal:  Solving for rho, Initial residual = 0, Final residual = 0, No Iterations 0

Execution time for mesh.update() = 0 s

DILUPBiCGStab:  Solving for Ux, Initial residual = 0.00567268, Final residual = 4.35165e-09, No Iterations 3
DILUPBiCGStab:  Solving for Uy, Initial residual = 0.00786556, Final residual = 4.76239e-09, No Iterations 3
DILUPBiCGStab:  Solving for O2, Initial residual = 0.0036668, Final residual = 2.03847e-09, No Iterations 3
DILUPBiCGStab:  Solving for H2O, Initial residual = 0.0036668, Final residual = 2.03848e-09, No Iterations 3
DILUPBiCGStab:  Solving for CH4, Initial residual = 0, Final residual = 0, No Iterations 0
DILUPBiCGStab:  Solving for CO2, Initial residual = 0.0036668, Final residual = 2.03848e-09, No Iterations 3
DILUPBiCGStab:  Solving for h, Initial residual = 0.00410129, Final residual = 1.86232e-09, No Iterations 3
min/max(T) = 300, 1044.97
GAMGPCG:  Solving for p_rgh, Initial residual = 0.020516, Final residual = 1.44565e-07, No Iterations 5
diagonal:  Solving for rho, Initial residual = 0, Final residual = 0, No Iterations 0
time step continuity errors : sum local = 7.69002e-09, global = -9.14842e-10, cumulative = -1.58514e-07
GAMGPCG:  Solving for p_rgh, Initial residual = 0.00264961, Final residual = 1.76431e-07, No Iterations 4
diagonal:  Solving for rho, Initial residual = 0, Final residual = 0, No Iterations 0
time step continuity errors : sum local = 8.6939e-09, global = 1.09419e-09, cumulative = -1.5742e-07
DILUPBiCGStab:  Solving for omega, Initial residual = 0.000136852, Final residual = 1.60142e-09, No Iterations 2
DILUPBiCGStab:  Solving for k, Initial residual = 0.00624945, Final residual = 2.11607e-09, No Iterations 3

ExecutionTime = 3.35 s  ClockTime = 3 s

    Overall     = 0.00147188, 0.01
Time = 275

diagonal:  Solving for rho, Initial residual = 0, Final residual = 0, No Iterations 0

Execution time for mesh.update() = 0 s

DILUPBiCGStab:  Solving for Ux, Initial residual = 0.00567189, Final residual = 4.19534e-09, No Iterations 3
DILUPBiCGStab:  Solving for Uy, Initial residual = 0.00787606, Final residual = 4.94532e-09, No Iterations 3
DILUPBiCGStab:  Solving for O2, Initial residual = 0.00367746, Final residual = 1.91241e-09, No Iterations 3
DILUPBiCGStab:  Solving for H2O, Initial residual = 0.00367747, Final residual = 1.91241e-09, No Iterations 3
DILUPBiCGStab:  Solving for CH4, Initial residual = 0, Final residual = 0, No Iterations 0
DILUPBiCGStab:  Solving for CO2, Initial residual = 0.00367747, Final residual = 1.91241e-09, No Iterations 3
DILUPBiCGStab:  Solving for h, Initial residual = 0.00412748, Final residual = 1.83845e-09, No Iterations 3
min/max(T) = 300, 1044.97
GAMGPCG:  Solving for p_rgh, Initial residual = 0.0209451, Final residual = 1.49547e-07, No Iterations 5
diagonal:  Solving for rho, Initial residual = 0, Final residual = 0, No Iterations 0
time step continuity errors : sum local = 7.78426e-09, global = -1.06631e-09, cumulative = -1.58486e-07
GAMGPCG:  Solving for p_rgh, Initial residual = 0.0026552, Final residual = 1.60918e-07, No Iterations 4
diagonal:  Solving for rho, Initial residual = 0, Final residual = 0, No Iterations 0
time step continuity errors : sum local = 7.9027e-09, global = 1.24637e-09, cumulative = -1.5724e-07
DILUPBiCGStab:  Solving for omega, Initial residual = 0.000137689, Final residual = 1.63813e-09, No Iterations 2
DILUPBiCGStab:  Solving for k, Initial residual = 0.00623793, Final residual = 1.87486e-09, No Iterations 3

ExecutionTime = 3.46 s  ClockTime = 3 s

    Overall     = 0.00147943, 0.01
Time = 276

diagonal:  Solving for rho, Initial residual = 0, Final residual = 0, No Iterations 0

Execution time for mesh.update() = 0 s

DILUPBiCGStab:  Solving for Ux, Initial residual = 0.00568116, Final residual = 4.13231e-09, No Iterations 3
DILUPBiCGStab:  Solving for Uy, Initial residual = 0.00791569, Final residual = 5.10693e-09, No Iterations 3
DILUPBiCGStab:  Solving for O2, Initial residual = 0.00368444, Final residual = 2.0475e-09, No Iterations 3
DILUPBiCGStab:  Solving for H2O, Initial residual = 0.00368444, Final residual = 2.04749e-09, No Iterations 3
DILUPBiCGStab:  Solving for CH4, Initial residual = 0, Final residual = 0, No Iterations 0
DILUPBiCGStab:  Solving for CO2, Initial residual = 0.00368444, Final residual = 2.04749e-09, No Iterations 3
DILUPBiCGStab:  Solving for h, Initial residual = 0.00412609, Final residual = 1.92331e-09, No Iterations 3
min/max(T) = 300, 1044.97
GAMGPCG:  Solving for p_rgh, Initial residual = 0.0207756, Final residual = 1.63482e-07, No Iterations 5
diagonal:  Solving for rho, Initial residual = 0, Final residual = 0, No Iterations 0
time step continuity errors : sum local = 8.65391e-09, global = -1.68614e-09, cumulative = -1.58926e-07
GAMGPCG:  Solving for p_rgh, Initial residual = 0.00272554, Final residual = 1.53308e-07, No Iterations 4
diagonal:  Solving for rho, Initial residual = 0, Final residual = 0, No Iterations 0
time step continuity errors : sum local = 7.58126e-09, global = 1.27522e-09, cumulative = -1.57651e-07
DILUPBiCGStab:  Solving for omega, Initial residual = 0.00013772, Final residual = 1.70535e-09, No Iterations 2
DILUPBiCGStab:  Solving for k, Initial residual = 0.0062164, Final residual = 1.81461e-09, No Iterations 3

ExecutionTime = 3.58 s  ClockTime = 3 s

    Overall     = 0.00149207, 0.01
Time = 277

diagonal:  Solving for rho, Initial residual = 0, Final residual = 0, No Iterations 0

Execution time for mesh.update() = 0 s

DILUPBiCGStab:  Solving for Ux, Initial residual = 0.00569405, Final residual = 4.26754e-09, No Iterations 3
DILUPBiCGStab:  Solving for Uy, Initial residual = 0.00791019, Final residual = 5.07848e-09, No Iterations 3
DILUPBiCGStab:  Solving for O2, Initial residual = 0.00369396, Final residual = 2.15587e-09, No Iterations 3
DILUPBiCGStab:  Solving for H2O, Initial residual = 0.00369397, Final residual = 2.15587e-09, No Iterations 3
DILUPBiCGStab:  Solving for CH4, Initial residual = 0, Final residual = 0, No Iterations 0
DILUPBiCGStab:  Solving for CO2, Initial residual = 0.00369397, Final residual = 2.15587e-09, No Iterations 3
DILUPBiCGStab:  Solving for h, Initial residual = 0.00414501, Final residual = 2.08066e-09, No Iterations 3
min/max(T) = 300, 1044.97
GAMGPCG:  Solving for p_rgh, Initial residual = 0.020708, Final residual = 1.35607e-07, No Iterations 5
diagonal:  Solving for rho, Initial residual = 0, Final residual = 0, No Iterations 0
time step continuity errors : sum local = 7.25092e-09, global = -1.34274e-09, cumulative = -1.58994e-07
GAMGPCG:  Solving for p_rgh, Initial residual = 0.00275309, Final residual = 1.69795e-07, No Iterations 4
diagonal:  Solving for rho, Initial residual = 0, Final residual = 0, No Iterations 0
time step continuity errors : sum local = 8.35525e-09, global = 1.3402e-09, cumulative = -1.57654e-07
DILUPBiCGStab:  Solving for omega, Initial residual = 0.000138279, Final residual = 1.8187e-09, No Iterations 2
DILUPBiCGStab:  Solving for k, Initial residual = 0.00619962, Final residual = 1.85953e-09, No Iterations 3

ExecutionTime = 3.7 s  ClockTime = 4 s

    Overall     = 0.00149401, 0.01
Time = 278

diagonal:  Solving for rho, Initial residual = 0, Final residual = 0, No Iterations 0

Execution time for mesh.update() = 0 s

DILUPBiCGStab:  Solving for Ux, Initial residual = 0.00569146, Final residual = 4.44719e-09, No Iterations 3
DILUPBiCGStab:  Solving for Uy, Initial residual = 0.0079168, Final residual = 5.05049e-09, No Iterations 3
DILUPBiCGStab:  Solving for O2, Initial residual = 0.00369544, Final residual = 2.26947e-09, No Iterations 3
DILUPBiCGStab:  Solving for H2O, Initial residual = 0.00369545, Final residual = 2.26946e-09, No Iterations 3
DILUPBiCGStab:  Solving for CH4, Initial residual = 0, Final residual = 0, No Iterations 0
DILUPBiCGStab:  Solving for CO2, Initial residual = 0.00369545, Final residual = 2.26946e-09, No Iterations 3
DILUPBiCGStab:  Solving for h, Initial residual = 0.00414903, Final residual = 2.17783e-09, No Iterations 3
min/max(T) = 300, 1044.97
GAMGPCG:  Solving for p_rgh, Initial residual = 0.0212767, Final residual = 8.22958e-07, No Iterations 4
diagonal:  Solving for rho, Initial residual = 0, Final residual = 0, No Iterations 0
time step continuity errors : sum local = 4.30706e-08, global = 2.64652e-09, cumulative = -1.55007e-07
GAMGPCG:  Solving for p_rgh, Initial residual = 0.00272805, Final residual = 1.61976e-07, No Iterations 4
diagonal:  Solving for rho, Initial residual = 0, Final residual = 0, No Iterations 0
time step continuity errors : sum local = 8.00502e-09, global = 1.22229e-09, cumulative = -1.53785e-07
DILUPBiCGStab:  Solving for omega, Initial residual = 0.000137956, Final residual = 1.96303e-09, No Iterations 2
DILUPBiCGStab:  Solving for k, Initial residual = 0.00617943, Final residual = 1.89187e-09, No Iterations 3

ExecutionTime = 3.82 s  ClockTime = 4 s

    Overall     = 0.00151764, 0.01
Time = 279

diagonal:  Solving for rho, Initial residual = 0, Final residual = 0, No Iterations 0

Execution time for mesh.update() = 0 s

DILUPBiCGStab:  Solving for Ux, Initial residual = 0.0057105, Final residual = 4.93463e-09, No Iterations 3
DILUPBiCGStab:  Solving for Uy, Initial residual = 0.00794185, Final residual = 5.17785e-09, No Iterations 3
DILUPBiCGStab:  Solving for O2, Initial residual = 0.00371034, Final residual = 2.4846e-09, No Iterations 3
DILUPBiCGStab:  Solving for H2O, Initial residual = 0.00371035, Final residual = 2.4846e-09, No Iterations 3
DILUPBiCGStab:  Solving for CH4, Initial residual = 0, Final residual = 0, No Iterations 0
DILUPBiCGStab:  Solving for CO2, Initial residual = 0.00371035, Final residual = 2.4846e-09, No Iterations 3
DILUPBiCGStab:  Solving for h, Initial residual = 0.00418043, Final residual = 2.57339e-09, No Iterations 3
min/max(T) = 300, 1044.97
GAMGPCG:  Solving for p_rgh, Initial residual = 0.0215036, Final residual = 9.51097e-07, No Iterations 4
diagonal:  Solving for rho, Initial residual = 0, Final residual = 0, No Iterations 0
time step continuity errors : sum local = 5.07473e-08, global = -8.82488e-10, cumulative = -1.54667e-07
GAMGPCG:  Solving for p_rgh, Initial residual = 0.00277507, Final residual = 1.98037e-07, No Iterations 4
diagonal:  Solving for rho, Initial residual = 0, Final residual = 0, No Iterations 0
time step continuity errors : sum local = 9.85069e-09, global = 1.33545e-09, cumulative = -1.53332e-07
DILUPBiCGStab:  Solving for omega, Initial residual = 0.000138886, Final residual = 2.10446e-09, No Iterations 2
DILUPBiCGStab:  Solving for k, Initial residual = 0.0061741, Final residual = 1.9116e-09, No Iterations 3

ExecutionTime = 3.93 s  ClockTime = 4 s

    Overall     = 0.00150814, 0.01
Time = 280

diagonal:  Solving for rho, Initial residual = 0, Final residual = 0, No Iterations 0

Execution time for mesh.update() = 0 s

DILUPBiCGStab:  Solving for Ux, Initial residual = 0.00570075, Final residual = 5.3818e-09, No Iterations 3
DILUPBiCGStab:  Solving for Uy, Initial residual = 0.00794981, Final residual = 5.055e-09, No Iterations 3
GAMGPCG:  Solving for G, Initial residual = 0.167057, Final residual = 3.59919e-05, No Iterations 6
DILUPBiCGStab:  Solving for O2, Initial residual = 0.00371652, Final residual = 2.43201e-09, No Iterations 3
DILUPBiCGStab:  Solving for H2O, Initial residual = 0.00371653, Final residual = 2.43201e-09, No Iterations 3
DILUPBiCGStab:  Solving for CH4, Initial residual = 0, Final residual = 0, No Iterations 0
DILUPBiCGStab:  Solving for CO2, Initial residual = 0.00371653, Final residual = 2.43201e-09, No Iterations 3
DILUPBiCGStab:  Solving for h, Initial residual = 0.00418424, Final residual = 2.3595e-09, No Iterations 3
min/max(T) = 300, 1044.97
GAMGPCG:  Solving for p_rgh, Initial residual = 0.0219235, Final residual = 6.93645e-07, No Iterations 4
diagonal:  Solving for rho, Initial residual = 0, Final residual = 0, No Iterations 0
time step continuity errors : sum local = 3.62769e-08, global = 7.70382e-10, cumulative = -1.52561e-07
GAMGPCG:  Solving for p_rgh, Initial residual = 0.00282378, Final residual = 1.7412e-07, No Iterations 4
diagonal:  Solving for rho, Initial residual = 0, Final residual = 0, No Iterations 0
time step continuity errors : sum local = 8.75506e-09, global = 1.01316e-09, cumulative = -1.51548e-07
DILUPBiCGStab:  Solving for omega, Initial residual = 0.000138407, Final residual = 2.10117e-09, No Iterations 2
DILUPBiCGStab:  Solving for k, Initial residual = 0.00616552, Final residual = 2.02913e-09, No Iterations 3

ExecutionTime = 4.18 s  ClockTime = 4 s

    Overall     = 0.00154694, 0.01
Time = 281

diagonal:  Solving for rho, Initial residual = 0, Final residual = 0, No Iterations 0

Execution time for mesh.update() = 0 s

DILUPBiCGStab:  Solving for Ux, Initial residual = 0.00573433, Final residual = 5.52793e-09, No Iterations 3
DILUPBiCGStab:  Solving for Uy, Initial residual = 0.00797788, Final residual = 5.22957e-09, No Iterations 3
DILUPBiCGStab:  Solving for O2, Initial residual = 0.0037222, Final residual = 2.47388e-09, No Iterations 3
DILUPBiCGStab:  Solving for H2O, Initial residual = 0.00372221, Final residual = 2.47387e-09, No Iterations 3
DILUPBiCGStab:  Solving for CH4, Initial residual = 0, Final residual = 0, No Iterations 0
DILUPBiCGStab:  Solving for CO2, Initial residual = 0.00372221, Final residual = 2.47387e-09, No Iterations 3
DILUPBiCGStab:  Solving for h, Initial residual = 0.00419435, Final residual = 2.5036e-09, No Iterations 3
min/max(T) = 300, 1044.97
GAMGPCG:  Solving for p_rgh, Initial residual = 0.0221721, Final residual = 8.89284e-07, No Iterations 4
diagonal:  Solving for rho, Initial residual = 0, Final residual = 0, No Iterations 0
time step continuity errors : sum local = 4.73574e-08, global = -1.89799e-10, cumulative = -1.51738e-07
GAMGPCG:  Solving for p_rgh, Initial residual = 0.00287838, Final residual = 2.18149e-07, No Iterations 4
diagonal:  Solving for rho, Initial residual = 0, Final residual = 0, No Iterations 0
time step continuity errors : sum local = 1.08849e-08, global = 1.37884e-09, cumulative = -1.50359e-07
DILUPBiCGStab:  Solving for omega, Initial residual = 0.00013867, Final residual = 2.25913e-09, No Iterations 2
DILUPBiCGStab:  Solving for k, Initial residual = 0.00616357, Final residual = 2.00173e-09, No Iterations 3

ExecutionTime = 4.31 s  ClockTime = 4 s

    Overall     = 0.00152234, 0.01
Time = 282

diagonal:  Solving for rho, Initial residual = 0, Final residual = 0, No Iterations 0

Execution time for mesh.update() = 0 s

DILUPBiCGStab:  Solving for Ux, Initial residual = 0.00571028, Final residual = 5.6465e-09, No Iterations 3
DILUPBiCGStab:  Solving for Uy, Initial residual = 0.00794559, Final residual = 4.70684e-09, No Iterations 3
DILUPBiCGStab:  Solving for O2, Initial residual = 0.00372179, Final residual = 2.55806e-09, No Iterations 3
DILUPBiCGStab:  Solving for H2O, Initial residual = 0.00372179, Final residual = 2.55806e-09, No Iterations 3
DILUPBiCGStab:  Solving for CH4, Initial residual = 0, Final residual = 0, No Iterations 0
DILUPBiCGStab:  Solving for CO2, Initial residual = 0.00372179, Final residual = 2.55806e-09, No Iterations 3
DILUPBiCGStab:  Solving for h, Initial residual = 0.00419663, Final residual = 2.70951e-09, No Iterations 3
min/max(T) = 300, 1044.97
GAMGPCG:  Solving for p_rgh, Initial residual = 0.0224409, Final residual = 8.29349e-07, No Iterations 4
diagonal:  Solving for rho, Initial residual = 0, Final residual = 0, No Iterations 0
time step continuity errors : sum local = 4.39879e-08, global = 3.90264e-09, cumulative = -1.46457e-07
GAMGPCG:  Solving for p_rgh, Initial residual = 0.0028215, Final residual = 2.21817e-07, No Iterations 4
diagonal:  Solving for rho, Initial residual = 0, Final residual = 0, No Iterations 0
time step continuity errors : sum local = 1.12651e-08, global = 2.04348e-09, cumulative = -1.44413e-07
DILUPBiCGStab:  Solving for omega, Initial residual = 0.000138006, Final residual = 2.10172e-09, No Iterations 2
DILUPBiCGStab:  Solving for k, Initial residual = 0.00614216, Final residual = 2.2368e-09, No Iterations 3

ExecutionTime = 4.42 s  ClockTime = 4 s

    Overall     = 0.00157303, 0.01
Time = 283

diagonal:  Solving for rho, Initial residual = 0, Final residual = 0, No Iterations 0

Execution time for mesh.update() = 0 s

DILUPBiCGStab:  Solving for Ux, Initial residual = 0.00574677, Final residual = 5.50248e-09, No Iterations 3
DILUPBiCGStab:  Solving for Uy, Initial residual = 0.00797663, Final residual = 4.82994e-09, No Iterations 3
DILUPBiCGStab:  Solving for O2, Initial residual = 0.00371442, Final residual = 2.64645e-09, No Iterations 3
DILUPBiCGStab:  Solving for H2O, Initial residual = 0.00371443, Final residual = 2.64645e-09, No Iterations 3
DILUPBiCGStab:  Solving for CH4, Initial residual = 0, Final residual = 0, No Iterations 0
DILUPBiCGStab:  Solving for CO2, Initial residual = 0.00371443, Final residual = 2.64645e-09, No Iterations 3
DILUPBiCGStab:  Solving for h, Initial residual = 0.00419113, Final residual = 2.8355e-09, No Iterations 3
min/max(T) = 300, 1044.97
GAMGPCG:  Solving for p_rgh, Initial residual = 0.022096, Final residual = 8.506e-07, No Iterations 4
diagonal:  Solving for rho, Initial residual = 0, Final residual = 0, No Iterations 0
time step continuity errors : sum local = 4.56157e-08, global = 3.67023e-09, cumulative = -1.40743e-07
GAMGPCG:  Solving for p_rgh, Initial residual = 0.0028055, Final residual = 2.31008e-07, No Iterations 4
diagonal:  Solving for rho, Initial residual = 0, Final residual = 0, No Iterations 0
time step continuity errors : sum local = 1.15992e-08, global = 1.54697e-09, cumulative = -1.39196e-07
DILUPBiCGStab:  Solving for omega, Initial residual = 0.000138203, Final residual = 2.22393e-09, No Iterations 2
DILUPBiCGStab:  Solving for k, Initial residual = 0.0061305, Final residual = 2.46183e-09, No Iterations 3

ExecutionTime = 4.54 s  ClockTime = 4 s

    Overall     = 0.00154422, 0.01
Time = 284

diagonal:  Solving for rho, Initial residual = 0, Final residual = 0, No Iterations 0

Execution time for mesh.update() = 0 s

DILUPBiCGStab:  Solving for Ux, Initial residual = 0.00572508, Final residual = 5.7056e-09, No Iterations 3
DILUPBiCGStab:  Solving for Uy, Initial residual = 0.00792493, Final residual = 4.91473e-09, No Iterations 3
DILUPBiCGStab:  Solving for O2, Initial residual = 0.00371467, Final residual = 2.63887e-09, No Iterations 3
DILUPBiCGStab:  Solving for H2O, Initial residual = 0.00371468, Final residual = 2.63888e-09, No Iterations 3
DILUPBiCGStab:  Solving for CH4, Initial residual = 0, Final residual = 0, No Iterations 0
DILUPBiCGStab:  Solving for CO2, Initial residual = 0.00371468, Final residual = 2.63888e-09, No Iterations 3
DILUPBiCGStab:  Solving for h, Initial residual = 0.00418741, Final residual = 2.55678e-09, No Iterations 3
min/max(T) = 300, 1044.97
GAMGPCG:  Solving for p_rgh, Initial residual = 0.0223493, Final residual = 8.56114e-07, No Iterations 4
diagonal:  Solving for rho, Initial residual = 0, Final residual = 0, No Iterations 0
time step continuity errors : sum local = 4.5663e-08, global = 4.53635e-09, cumulative = -1.3466e-07
GAMGPCG:  Solving for p_rgh, Initial residual = 0.00278606, Final residual = 1.67389e-07, No Iterations 4
diagonal:  Solving for rho, Initial residual = 0, Final residual = 0, No Iterations 0
time step continuity errors : sum local = 8.53339e-09, global = 1.64971e-09, cumulative = -1.3301e-07
DILUPBiCGStab:  Solving for omega, Initial residual = 0.000137733, Final residual = 2.21143e-09, No Iterations 2
DILUPBiCGStab:  Solving for k, Initial residual = 0.00611406, Final residual = 2.47544e-09, No Iterations 3

ExecutionTime = 4.66 s  ClockTime = 4 s

    Overall     = 0.00159462, 0.01
Time = 285

diagonal:  Solving for rho, Initial residual = 0, Final residual = 0, No Iterations 0

Execution time for mesh.update() = 0 s

DILUPBiCGStab:  Solving for Ux, Initial residual = 0.00575936, Final residual = 5.61433e-09, No Iterations 3
DILUPBiCGStab:  Solving for Uy, Initial residual = 0.00794985, Final residual = 5.05451e-09, No Iterations 3
DILUPBiCGStab:  Solving for O2, Initial residual = 0.00370395, Final residual = 2.7913e-09, No Iterations 3
DILUPBiCGStab:  Solving for H2O, Initial residual = 0.00370396, Final residual = 2.7913e-09, No Iterations 3
DILUPBiCGStab:  Solving for CH4, Initial residual = 0, Final residual = 0, No Iterations 0
DILUPBiCGStab:  Solving for CO2, Initial residual = 0.00370396, Final residual = 2.7913e-09, No Iterations 3
DILUPBiCGStab:  Solving for h, Initial residual = 0.00417433, Final residual = 2.73498e-09, No Iterations 3
min/max(T) = 300, 1044.97
GAMGPCG:  Solving for p_rgh, Initial residual = 0.0222487, Final residual = 9.29071e-07, No Iterations 4
diagonal:  Solving for rho, Initial residual = 0, Final residual = 0, No Iterations 0
time step continuity errors : sum local = 5.0325e-08, global = 5.18198e-09, cumulative = -1.27828e-07
GAMGPCG:  Solving for p_rgh, Initial residual = 0.00285233, Final residual = 2.21688e-07, No Iterations 4
diagonal:  Solving for rho, Initial residual = 0, Final residual = 0, No Iterations 0
time step continuity errors : sum local = 1.12085e-08, global = 1.65961e-09, cumulative = -1.26168e-07
DILUPBiCGStab:  Solving for omega, Initial residual = 0.000136895, Final residual = 2.31158e-09, No Iterations 2
DILUPBiCGStab:  Solving for k, Initial residual = 0.00611603, Final residual = 2.6311e-09, No Iterations 3

ExecutionTime = 4.77 s  ClockTime = 5 s

    Overall     = 0.0015662, 0.01
Time = 286

diagonal:  Solving for rho, Initial residual = 0, Final residual = 0, No Iterations 0

Execution time for mesh.update() = 0 s

DILUPBiCGStab:  Solving for Ux, Initial residual = 0.00575577, Final residual = 5.64712e-09, No Iterations 3
DILUPBiCGStab:  Solving for Uy, Initial residual = 0.00790895, Final residual = 5.71063e-09, No Iterations 3
DILUPBiCGStab:  Solving for O2, Initial residual = 0.00370935, Final residual = 2.56855e-09, No Iterations 3
DILUPBiCGStab:  Solving for H2O, Initial residual = 0.00370936, Final residual = 2.56855e-09, No Iterations 3
DILUPBiCGStab:  Solving for CH4, Initial residual = 0, Final residual = 0, No Iterations 0
DILUPBiCGStab:  Solving for CO2, Initial residual = 0.00370936, Final residual = 2.56855e-09, No Iterations 3
DILUPBiCGStab:  Solving for h, Initial residual = 0.00417737, Final residual = 2.47657e-09, No Iterations 3
min/max(T) = 300, 1044.97
GAMGPCG:  Solving for p_rgh, Initial residual = 0.0223408, Final residual = 1.52383e-07, No Iterations 5
diagonal:  Solving for rho, Initial residual = 0, Final residual = 0, No Iterations 0
time step continuity errors : sum local = 8.34196e-09, global = -5.91521e-10, cumulative = -1.2676e-07
GAMGPCG:  Solving for p_rgh, Initial residual = 0.00282126, Final residual = 1.6634e-07, No Iterations 4
diagonal:  Solving for rho, Initial residual = 0, Final residual = 0, No Iterations 0
time step continuity errors : sum local = 8.32024e-09, global = 1.83267e-09, cumulative = -1.24927e-07
DILUPBiCGStab:  Solving for omega, Initial residual = 0.000137287, Final residual = 2.21225e-09, No Iterations 2
DILUPBiCGStab:  Solving for k, Initial residual = 0.00609023, Final residual = 2.62468e-09, No Iterations 3

ExecutionTime = 4.89 s  ClockTime = 5 s

    Overall     = 0.00161576, 0.01
Time = 287

diagonal:  Solving for rho, Initial residual = 0, Final residual = 0, No Iterations 0

Execution time for mesh.update() = 0 s

DILUPBiCGStab:  Solving for Ux, Initial residual = 0.00577711, Final residual = 5.67491e-09, No Iterations 3
DILUPBiCGStab:  Solving for Uy, Initial residual = 0.00790721, Final residual = 6.26928e-09, No Iterations 3
DILUPBiCGStab:  Solving for O2, Initial residual = 0.00370295, Final residual = 2.5579e-09, No Iterations 3
DILUPBiCGStab:  Solving for H2O, Initial residual = 0.00370296, Final residual = 2.5579e-09, No Iterations 3
DILUPBiCGStab:  Solving for CH4, Initial residual = 0, Final residual = 0, No Iterations 0
DILUPBiCGStab:  Solving for CO2, Initial residual = 0.00370296, Final residual = 2.5579e-09, No Iterations 3
DILUPBiCGStab:  Solving for h, Initial residual = 0.00417317, Final residual = 2.38707e-09, No Iterations 3
min/max(T) = 300, 1044.97
GAMGPCG:  Solving for p_rgh, Initial residual = 0.0224949, Final residual = 1.36231e-07, No Iterations 5
diagonal:  Solving for rho, Initial residual = 0, Final residual = 0, No Iterations 0
time step continuity errors : sum local = 7.25473e-09, global = -4.21709e-10, cumulative = -1.25349e-07
GAMGPCG:  Solving for p_rgh, Initial residual = 0.00290102, Final residual = 2.4816e-07, No Iterations 4
diagonal:  Solving for rho, Initial residual = 0, Final residual = 0, No Iterations 0
time step continuity errors : sum local = 1.25029e-08, global = 2.0268e-09, cumulative = -1.23322e-07
DILUPBiCGStab:  Solving for omega, Initial residual = 0.000136905, Final residual = 2.11554e-09, No Iterations 2
DILUPBiCGStab:  Solving for k, Initial residual = 0.00609569, Final residual = 2.53753e-09, No Iterations 3

ExecutionTime = 5.01 s  ClockTime = 5 s

    Overall     = 0.00158685, 0.01
Time = 288

diagonal:  Solving for rho, Initial residual = 0, Final residual = 0, No Iterations 0

Execution time for mesh.update() = 0 s

DILUPBiCGStab:  Solving for Ux, Initial residual = 0.00578969, Final residual = 5.41264e-09, No Iterations 3
DILUPBiCGStab:  Solving for Uy, Initial residual = 0.00787684, Final residual = 6.50194e-09, No Iterations 3
DILUPBiCGStab:  Solving for O2, Initial residual = 0.00369544, Final residual = 2.29758e-09, No Iterations 3
DILUPBiCGStab:  Solving for H2O, Initial residual = 0.00369546, Final residual = 2.29758e-09, No Iterations 3
DILUPBiCGStab:  Solving for CH4, Initial residual = 0, Final residual = 0, No Iterations 0
DILUPBiCGStab:  Solving for CO2, Initial residual = 0.00369546, Final residual = 2.29758e-09, No Iterations 3
DILUPBiCGStab:  Solving for h, Initial residual = 0.00416298, Final residual = 2.32171e-09, No Iterations 3
min/max(T) = 300, 1044.97
GAMGPCG:  Solving for p_rgh, Initial residual = 0.022893, Final residual = 9.94305e-07, No Iterations 4
diagonal:  Solving for rho, Initial residual = 0, Final residual = 0, No Iterations 0
time step continuity errors : sum local = 5.26206e-08, global = 3.94749e-09, cumulative = -1.19374e-07
GAMGPCG:  Solving for p_rgh, Initial residual = 0.00288475, Final residual = 2.33726e-07, No Iterations 4
diagonal:  Solving for rho, Initial residual = 0, Final residual = 0, No Iterations 0
time step continuity errors : sum local = 1.17564e-08, global = 2.92006e-09, cumulative = -1.16454e-07
DILUPBiCGStab:  Solving for omega, Initial residual = 0.000136153, Final residual = 1.74536e-09, No Iterations 2
DILUPBiCGStab:  Solving for k, Initial residual = 0.00607706, Final residual = 2.56466e-09, No Iterations 3

ExecutionTime = 5.12 s  ClockTime = 5 s

    Overall     = 0.00163668, 0.01
Time = 289

diagonal:  Solving for rho, Initial residual = 0, Final residual = 0, No Iterations 0

Execution time for mesh.update() = 0 s

DILUPBiCGStab:  Solving for Ux, Initial residual = 0.00580988, Final residual = 5.35536e-09, No Iterations 3
DILUPBiCGStab:  Solving for Uy, Initial residual = 0.00789977, Final residual = 6.73357e-09, No Iterations 3
DILUPBiCGStab:  Solving for O2, Initial residual = 0.0036789, Final residual = 2.43854e-09, No Iterations 3
DILUPBiCGStab:  Solving for H2O, Initial residual = 0.00367891, Final residual = 2.43855e-09, No Iterations 3
DILUPBiCGStab:  Solving for CH4, Initial residual = 0, Final residual = 0, No Iterations 0
DILUPBiCGStab:  Solving for CO2, Initial residual = 0.00367891, Final residual = 2.43855e-09, No Iterations 3
DILUPBiCGStab:  Solving for h, Initial residual = 0.00414114, Final residual = 2.30399e-09, No Iterations 3
min/max(T) = 300, 1044.97
GAMGPCG:  Solving for p_rgh, Initial residual = 0.0220496, Final residual = 9.70858e-07, No Iterations 4
diagonal:  Solving for rho, Initial residual = 0, Final residual = 0, No Iterations 0
time step continuity errors : sum local = 5.16611e-08, global = 6.77886e-09, cumulative = -1.09676e-07
GAMGPCG:  Solving for p_rgh, Initial residual = 0.00295054, Final residual = 2.75107e-07, No Iterations 4
diagonal:  Solving for rho, Initial residual = 0, Final residual = 0, No Iterations 0
time step continuity errors : sum local = 1.38844e-08, global = 2.73853e-09, cumulative = -1.06937e-07
DILUPBiCGStab:  Solving for omega, Initial residual = 0.000136085, Final residual = 1.70833e-09, No Iterations 2
DILUPBiCGStab:  Solving for k, Initial residual = 0.00608441, Final residual = 2.4208e-09, No Iterations 3

ExecutionTime = 5.24 s  ClockTime = 5 s

    Overall     = 0.00160775, 0.01
Time = 290

diagonal:  Solving for rho, Initial residual = 0, Final residual = 0, No Iterations 0

Execution time for mesh.update() = 0 s

DILUPBiCGStab:  Solving for Ux, Initial residual = 0.00580805, Final residual = 3.87272e-09, No Iterations 3
DILUPBiCGStab:  Solving for Uy, Initial residual = 0.00785513, Final residual = 6.77722e-09, No Iterations 3
GAMGPCG:  Solving for G, Initial residual = 0.189764, Final residual = 3.68029e-05, No Iterations 6
DILUPBiCGStab:  Solving for O2, Initial residual = 0.00367401, Final residual = 2.77639e-09, No Iterations 3
DILUPBiCGStab:  Solving for H2O, Initial residual = 0.00367402, Final residual = 2.7764e-09, No Iterations 3
DILUPBiCGStab:  Solving for CH4, Initial residual = 0, Final residual = 0, No Iterations 0
DILUPBiCGStab:  Solving for CO2, Initial residual = 0.00367402, Final residual = 2.7764e-09, No Iterations 3
DILUPBiCGStab:  Solving for h, Initial residual = 0.00413116, Final residual = 2.68648e-09, No Iterations 3
min/max(T) = 300, 1044.97
GAMGPCG:  Solving for p_rgh, Initial residual = 0.022483, Final residual = 9.74889e-07, No Iterations 4
diagonal:  Solving for rho, Initial residual = 0, Final residual = 0, No Iterations 0
time step continuity errors : sum local = 5.21073e-08, global = 6.70735e-09, cumulative = -1.0023e-07
GAMGPCG:  Solving for p_rgh, Initial residual = 0.00295064, Final residual = 2.79038e-07, No Iterations 4
diagonal:  Solving for rho, Initial residual = 0, Final residual = 0, No Iterations 0
time step continuity errors : sum local = 1.40042e-08, global = 3.55851e-09, cumulative = -9.66712e-08
DILUPBiCGStab:  Solving for omega, Initial residual = 0.000135487, Final residual = 1.67518e-09, No Iterations 2
DILUPBiCGStab:  Solving for k, Initial residual = 0.00607024, Final residual = 2.39452e-09, No Iterations 3

ExecutionTime = 5.49 s  ClockTime = 5 s

    Overall     = 0.00165812, 0.01
Time = 291

diagonal:  Solving for rho, Initial residual = 0, Final residual = 0, No Iterations 0

Execution time for mesh.update() = 0 s

DILUPBiCGStab:  Solving for Ux, Initial residual = 0.00583531, Final residual = 3.90844e-09, No Iterations 3
DILUPBiCGStab:  Solving for Uy, Initial residual = 0.00786012, Final residual = 6.95472e-09, No Iterations 3
DILUPBiCGStab:  Solving for O2, Initial residual = 0.00366425, Final residual = 3.1869e-09, No Iterations 3
DILUPBiCGStab:  Solving for H2O, Initial residual = 0.00366426, Final residual = 3.18691e-09, No Iterations 3
DILUPBiCGStab:  Solving for CH4, Initial residual = 0, Final residual = 0, No Iterations 0
DILUPBiCGStab:  Solving for CO2, Initial residual = 0.00366426, Final residual = 3.18691e-09, No Iterations 3
DILUPBiCGStab:  Solving for h, Initial residual = 0.00412195, Final residual = 3.15575e-09, No Iterations 3
min/max(T) = 300, 1044.97
GAMGPCG:  Solving for p_rgh, Initial residual = 0.0218928, Final residual = 1.4357e-07, No Iterations 5
diagonal:  Solving for rho, Initial residual = 0, Final residual = 0, No Iterations 0
time step continuity errors : sum local = 7.70843e-09, global = -2.26687e-10, cumulative = -9.68979e-08
GAMGPCG:  Solving for p_rgh, Initial residual = 0.00304065, Final residual = 2.97062e-07, No Iterations 4
diagonal:  Solving for rho, Initial residual = 0, Final residual = 0, No Iterations 0
time step continuity errors : sum local = 1.48401e-08, global = 3.25921e-09, cumulative = -9.36386e-08
DILUPBiCGStab:  Solving for omega, Initial residual = 0.00013535, Final residual = 1.83089e-09, No Iterations 2
DILUPBiCGStab:  Solving for k, Initial residual = 0.00606249, Final residual = 2.05427e-09, No Iterations 3

ExecutionTime = 5.62 s  ClockTime = 5 s

    Overall     = 0.0016293, 0.01
Time = 292

diagonal:  Solving for rho, Initial residual = 0, Final residual = 0, No Iterations 0

Execution time for mesh.update() = 0 s

DILUPBiCGStab:  Solving for Ux, Initial residual = 0.00584102, Final residual = 3.6816e-09, No Iterations 3
DILUPBiCGStab:  Solving for Uy, Initial residual = 0.00781689, Final residual = 6.82925e-09, No Iterations 3
DILUPBiCGStab:  Solving for O2, Initial residual = 0.0036584, Final residual = 3.07814e-09, No Iterations 3
DILUPBiCGStab:  Solving for H2O, Initial residual = 0.00365842, Final residual = 3.07815e-09, No Iterations 3
DILUPBiCGStab:  Solving for CH4, Initial residual = 0, Final residual = 0, No Iterations 0
DILUPBiCGStab:  Solving for CO2, Initial residual = 0.00365842, Final residual = 3.07815e-09, No Iterations 3
DILUPBiCGStab:  Solving for h, Initial residual = 0.00411695, Final residual = 3.10792e-09, No Iterations 3
min/max(T) = 300, 1044.97
GAMGPCG:  Solving for p_rgh, Initial residual = 0.0224971, Final residual = 7.80106e-07, No Iterations 4
diagonal:  Solving for rho, Initial residual = 0, Final residual = 0, No Iterations 0
time step continuity errors : sum local = 4.11488e-08, global = 4.52748e-09, cumulative = -8.91112e-08
GAMGPCG:  Solving for p_rgh, Initial residual = 0.0030155, Final residual = 2.12659e-07, No Iterations 4
diagonal:  Solving for rho, Initial residual = 0, Final residual = 0, No Iterations 0
time step continuity errors : sum local = 1.05806e-08, global = 2.65622e-09, cumulative = -8.64549e-08
DILUPBiCGStab:  Solving for omega, Initial residual = 0.000135372, Final residual = 2.20268e-09, No Iterations 2
DILUPBiCGStab:  Solving for k, Initial residual = 0.00605016, Final residual = 1.61227e-09, No Iterations 3

ExecutionTime = 5.73 s  ClockTime = 6 s

    Overall     = 0.00168, 0.01
Time = 293

diagonal:  Solving for rho, Initial residual = 0, Final residual = 0, No Iterations 0

Execution time for mesh.update() = 0 s

[...]

Execution time for mesh.update() = 0 s

DILUPBiCGStab:  Solving for Ux, Initial residual = 0.00426032, Final residual = 6.11837e-09, No Iterations 3
DILUPBiCGStab:  Solving for Uy, Initial residual = 0.00381968, Final residual = 5.69151e-09, No Iterations 3
GAMGPCG:  Solving for G, Initial residual = 0.217369, Final residual = 6.06494e-05, No Iterations 6
DILUPBiCGStab:  Solving for O2, Initial residual = 0.00200374, Final residual = 2.35578e-09, No Iterations 3
DILUPBiCGStab:  Solving for H2O, Initial residual = 0.00200374, Final residual = 2.35578e-09, No Iterations 3
DILUPBiCGStab:  Solving for CH4, Initial residual = 0, Final residual = 0, No Iterations 0
DILUPBiCGStab:  Solving for CO2, Initial residual = 0.00200374, Final residual = 2.35578e-09, No Iterations 3
DILUPBiCGStab:  Solving for h, Initial residual = 0.00228824, Final residual = 2.32395e-09, No Iterations 3
min/max(T) = 300, 1044.97
GAMGPCG:  Solving for p_rgh, Initial residual = 0.0265176, Final residual = 2.84436e-07, No Iterations 5
diagonal:  Solving for rho, Initial residual = 0, Final residual = 0, No Iterations 0
time step continuity errors : sum local = 7.68232e-09, global = -8.23669e-11, cumulative = 1.35339e-06
GAMGPCG:  Solving for p_rgh, Initial residual = 0.00454324, Final residual = 3.66976e-07, No Iterations 4
diagonal:  Solving for rho, Initial residual = 0, Final residual = 0, No Iterations 0
time step continuity errors : sum local = 9.85042e-09, global = -3.24122e-10, cumulative = 1.35306e-06
DILUPBiCGStab:  Solving for omega, Initial residual = 8.65051e-05, Final residual = 1.66097e-09, No Iterations 2
DILUPBiCGStab:  Solving for k, Initial residual = 0.00323881, Final residual = 4.63378e-09, No Iterations 3

ExecutionTime = 295.2 s  ClockTime = 295 s

    Overall     = 0.00135279, 0.01
Time = 2491

diagonal:  Solving for rho, Initial residual = 0, Final residual = 0, No Iterations 0

Execution time for mesh.update() = 0.01 s

DILUPBiCGStab:  Solving for Ux, Initial residual = 0.00427409, Final residual = 6.31026e-09, No Iterations 3
DILUPBiCGStab:  Solving for Uy, Initial residual = 0.00385537, Final residual = 5.18192e-09, No Iterations 3
DILUPBiCGStab:  Solving for O2, Initial residual = 0.00196301, Final residual = 2.69081e-09, No Iterations 3
DILUPBiCGStab:  Solving for H2O, Initial residual = 0.00196301, Final residual = 2.69081e-09, No Iterations 3
DILUPBiCGStab:  Solving for CH4, Initial residual = 0, Final residual = 0, No Iterations 0
DILUPBiCGStab:  Solving for CO2, Initial residual = 0.00196301, Final residual = 2.69081e-09, No Iterations 3
DILUPBiCGStab:  Solving for h, Initial residual = 0.00223582, Final residual = 2.75887e-09, No Iterations 3
min/max(T) = 300, 1044.97
GAMGPCG:  Solving for p_rgh, Initial residual = 0.0277355, Final residual = 2.71151e-07, No Iterations 5
diagonal:  Solving for rho, Initial residual = 0, Final residual = 0, No Iterations 0
time step continuity errors : sum local = 7.42876e-09, global = -2.07347e-10, cumulative = 1.35286e-06
GAMGPCG:  Solving for p_rgh, Initial residual = 0.00450212, Final residual = 3.60842e-07, No Iterations 4
diagonal:  Solving for rho, Initial residual = 0, Final residual = 0, No Iterations 0
time step continuity errors : sum local = 9.6808e-09, global = -2.00327e-10, cumulative = 1.35266e-06
DILUPBiCGStab:  Solving for omega, Initial residual = 8.73233e-05, Final residual = 1.67643e-09, No Iterations 2
DILUPBiCGStab:  Solving for k, Initial residual = 0.00324603, Final residual = 5.78573e-09, No Iterations 3

ExecutionTime = 295.32 s  ClockTime = 295 s

    Overall     = 0.00135405, 0.01
Time = 2492

diagonal:  Solving for rho, Initial residual = 0, Final residual = 0, No Iterations 0

Execution time for mesh.update() = 0 s

DILUPBiCGStab:  Solving for Ux, Initial residual = 0.00423816, Final residual = 6.66247e-09, No Iterations 3
DILUPBiCGStab:  Solving for Uy, Initial residual = 0.00384514, Final residual = 5.32374e-09, No Iterations 3
DILUPBiCGStab:  Solving for O2, Initial residual = 0.00195384, Final residual = 2.88342e-09, No Iterations 3
DILUPBiCGStab:  Solving for H2O, Initial residual = 0.00195384, Final residual = 2.88342e-09, No Iterations 3
DILUPBiCGStab:  Solving for CH4, Initial residual = 0, Final residual = 0, No Iterations 0
DILUPBiCGStab:  Solving for CO2, Initial residual = 0.00195384, Final residual = 2.88342e-09, No Iterations 3
DILUPBiCGStab:  Solving for h, Initial residual = 0.00222044, Final residual = 2.95816e-09, No Iterations 3
min/max(T) = 300, 1044.97
GAMGPCG:  Solving for p_rgh, Initial residual = 0.0261918, Final residual = 2.79299e-07, No Iterations 5
diagonal:  Solving for rho, Initial residual = 0, Final residual = 0, No Iterations 0
time step continuity errors : sum local = 7.58587e-09, global = -2.07018e-10, cumulative = 1.35245e-06
GAMGPCG:  Solving for p_rgh, Initial residual = 0.00461977, Final residual = 3.4727e-07, No Iterations 4
diagonal:  Solving for rho, Initial residual = 0, Final residual = 0, No Iterations 0
time step continuity errors : sum local = 9.36779e-09, global = -1.06476e-09, cumulative = 1.35138e-06
DILUPBiCGStab:  Solving for omega, Initial residual = 8.78094e-05, Final residual = 1.75588e-09, No Iterations 2
DILUPBiCGStab:  Solving for k, Initial residual = 0.00324203, Final residual = 5.77835e-09, No Iterations 3

ExecutionTime = 295.44 s  ClockTime = 295 s

    Overall     = 0.00135472, 0.01
Time = 2493

diagonal:  Solving for rho, Initial residual = 0, Final residual = 0, No Iterations 0

Execution time for mesh.update() = 0 s

DILUPBiCGStab:  Solving for Ux, Initial residual = 0.00421118, Final residual = 7.22372e-09, No Iterations 3
DILUPBiCGStab:  Solving for Uy, Initial residual = 0.00380804, Final residual = 5.23382e-09, No Iterations 3
DILUPBiCGStab:  Solving for O2, Initial residual = 0.00194146, Final residual = 3.46836e-09, No Iterations 3
DILUPBiCGStab:  Solving for H2O, Initial residual = 0.00194146, Final residual = 3.46836e-09, No Iterations 3
DILUPBiCGStab:  Solving for CH4, Initial residual = 0, Final residual = 0, No Iterations 0
DILUPBiCGStab:  Solving for CO2, Initial residual = 0.00194146, Final residual = 3.46836e-09, No Iterations 3
DILUPBiCGStab:  Solving for h, Initial residual = 0.00220595, Final residual = 3.39559e-09, No Iterations 3
min/max(T) = 300, 1044.97
GAMGPCG:  Solving for p_rgh, Initial residual = 0.0258703, Final residual = 2.48861e-07, No Iterations 5
diagonal:  Solving for rho, Initial residual = 0, Final residual = 0, No Iterations 0
time step continuity errors : sum local = 6.78926e-09, global = -2.8053e-10, cumulative = 1.3511e-06
GAMGPCG:  Solving for p_rgh, Initial residual = 0.00447427, Final residual = 3.76325e-07, No Iterations 4
diagonal:  Solving for rho, Initial residual = 0, Final residual = 0, No Iterations 0
time step continuity errors : sum local = 1.0167e-08, global = -1.13891e-09, cumulative = 1.34996e-06
DILUPBiCGStab:  Solving for omega, Initial residual = 8.82001e-05, Final residual = 1.7703e-09, No Iterations 2
DILUPBiCGStab:  Solving for k, Initial residual = 0.00324602, Final residual = 3.65743e-09, No Iterations 3

ExecutionTime = 295.57 s  ClockTime = 295 s

    Overall     = 0.00135477, 0.01
Time = 2494

diagonal:  Solving for rho, Initial residual = 0, Final residual = 0, No Iterations 0

Execution time for mesh.update() = 0 s

DILUPBiCGStab:  Solving for Ux, Initial residual = 0.00420647, Final residual = 7.27241e-09, No Iterations 3
DILUPBiCGStab:  Solving for Uy, Initial residual = 0.00384339, Final residual = 5.74065e-09, No Iterations 3
DILUPBiCGStab:  Solving for O2, Initial residual = 0.00192457, Final residual = 3.35446e-09, No Iterations 3
DILUPBiCGStab:  Solving for H2O, Initial residual = 0.00192457, Final residual = 3.35446e-09, No Iterations 3
DILUPBiCGStab:  Solving for CH4, Initial residual = 0, Final residual = 0, No Iterations 0
DILUPBiCGStab:  Solving for CO2, Initial residual = 0.00192457, Final residual = 3.35446e-09, No Iterations 3
DILUPBiCGStab:  Solving for h, Initial residual = 0.00218332, Final residual = 3.28191e-09, No Iterations 3
min/max(T) = 300, 1044.97
GAMGPCG:  Solving for p_rgh, Initial residual = 0.0277608, Final residual = 2.58546e-07, No Iterations 5
diagonal:  Solving for rho, Initial residual = 0, Final residual = 0, No Iterations 0
time step continuity errors : sum local = 7.13024e-09, global = -3.24661e-10, cumulative = 1.34964e-06
GAMGPCG:  Solving for p_rgh, Initial residual = 0.00462789, Final residual = 4.25106e-07, No Iterations 4
diagonal:  Solving for rho, Initial residual = 0, Final residual = 0, No Iterations 0
time step continuity errors : sum local = 1.14973e-08, global = -8.04679e-10, cumulative = 1.34883e-06
DILUPBiCGStab:  Solving for omega, Initial residual = 8.81854e-05, Final residual = 1.82773e-09, No Iterations 2
DILUPBiCGStab:  Solving for k, Initial residual = 0.00325373, Final residual = 4.33361e-09, No Iterations 3

ExecutionTime = 295.69 s  ClockTime = 296 s

    Overall     = 0.00135023, 0.01
Time = 2495

diagonal:  Solving for rho, Initial residual = 0, Final residual = 0, No Iterations 0

Execution time for mesh.update() = 0 s

DILUPBiCGStab:  Solving for Ux, Initial residual = 0.00420213, Final residual = 7.44807e-09, No Iterations 3
DILUPBiCGStab:  Solving for Uy, Initial residual = 0.00383482, Final residual = 6.18538e-09, No Iterations 3
DILUPBiCGStab:  Solving for O2, Initial residual = 0.00191032, Final residual = 3.55795e-09, No Iterations 3
DILUPBiCGStab:  Solving for H2O, Initial residual = 0.00191032, Final residual = 3.55795e-09, No Iterations 3
DILUPBiCGStab:  Solving for CH4, Initial residual = 0, Final residual = 0, No Iterations 0
DILUPBiCGStab:  Solving for CO2, Initial residual = 0.00191032, Final residual = 3.55795e-09, No Iterations 3
DILUPBiCGStab:  Solving for h, Initial residual = 0.00216447, Final residual = 3.38087e-09, No Iterations 3
min/max(T) = 300, 1044.97
GAMGPCG:  Solving for p_rgh, Initial residual = 0.0251393, Final residual = 2.53902e-07, No Iterations 5
diagonal:  Solving for rho, Initial residual = 0, Final residual = 0, No Iterations 0
time step continuity errors : sum local = 6.87491e-09, global = -1.57593e-10, cumulative = 1.34868e-06
GAMGPCG:  Solving for p_rgh, Initial residual = 0.00460315, Final residual = 4.28765e-07, No Iterations 4
diagonal:  Solving for rho, Initial residual = 0, Final residual = 0, No Iterations 0
time step continuity errors : sum local = 1.1655e-08, global = -5.99544e-10, cumulative = 1.34808e-06
DILUPBiCGStab:  Solving for omega, Initial residual = 8.84768e-05, Final residual = 1.86381e-09, No Iterations 2
DILUPBiCGStab:  Solving for k, Initial residual = 0.00326042, Final residual = 4.81917e-09, No Iterations 3

ExecutionTime = 295.8 s  ClockTime = 296 s

    Overall     = 0.00135132, 0.01
Time = 2496

diagonal:  Solving for rho, Initial residual = 0, Final residual = 0, No Iterations 0

Execution time for mesh.update() = 0 s

DILUPBiCGStab:  Solving for Ux, Initial residual = 0.00415747, Final residual = 7.25421e-09, No Iterations 3
DILUPBiCGStab:  Solving for Uy, Initial residual = 0.00382141, Final residual = 6.52904e-09, No Iterations 3
DILUPBiCGStab:  Solving for O2, Initial residual = 0.00190259, Final residual = 3.35121e-09, No Iterations 3
DILUPBiCGStab:  Solving for H2O, Initial residual = 0.00190259, Final residual = 3.35121e-09, No Iterations 3
DILUPBiCGStab:  Solving for CH4, Initial residual = 0, Final residual = 0, No Iterations 0
DILUPBiCGStab:  Solving for CO2, Initial residual = 0.00190259, Final residual = 3.35121e-09, No Iterations 3
DILUPBiCGStab:  Solving for h, Initial residual = 0.00215324, Final residual = 3.31282e-09, No Iterations 3
min/max(T) = 300, 1044.97
GAMGPCG:  Solving for p_rgh, Initial residual = 0.0269119, Final residual = 2.33777e-07, No Iterations 5
diagonal:  Solving for rho, Initial residual = 0, Final residual = 0, No Iterations 0
time step continuity errors : sum local = 6.4426e-09, global = 4.5644e-10, cumulative = 1.34853e-06
GAMGPCG:  Solving for p_rgh, Initial residual = 0.00441721, Final residual = 4.39219e-07, No Iterations 4
diagonal:  Solving for rho, Initial residual = 0, Final residual = 0, No Iterations 0
time step continuity errors : sum local = 1.18538e-08, global = -5.07732e-10, cumulative = 1.34803e-06
DILUPBiCGStab:  Solving for omega, Initial residual = 8.83151e-05, Final residual = 1.92852e-09, No Iterations 2
DILUPBiCGStab:  Solving for k, Initial residual = 0.00326872, Final residual = 5.04352e-09, No Iterations 3

ExecutionTime = 295.92 s  ClockTime = 296 s

    Overall     = 0.00134444, 0.01
Time = 2497

diagonal:  Solving for rho, Initial residual = 0, Final residual = 0, No Iterations 0

Execution time for mesh.update() = 0 s

DILUPBiCGStab:  Solving for Ux, Initial residual = 0.00418122, Final residual = 7.43379e-09, No Iterations 3
DILUPBiCGStab:  Solving for Uy, Initial residual = 0.00387188, Final residual = 6.9757e-09, No Iterations 3
DILUPBiCGStab:  Solving for O2, Initial residual = 0.00189517, Final residual = 3.69491e-09, No Iterations 3
DILUPBiCGStab:  Solving for H2O, Initial residual = 0.00189517, Final residual = 3.69491e-09, No Iterations 3
DILUPBiCGStab:  Solving for CH4, Initial residual = 0, Final residual = 0, No Iterations 0
DILUPBiCGStab:  Solving for CO2, Initial residual = 0.00189517, Final residual = 3.69491e-09, No Iterations 3
DILUPBiCGStab:  Solving for h, Initial residual = 0.00213959, Final residual = 3.52685e-09, No Iterations 3
min/max(T) = 300, 1044.97
GAMGPCG:  Solving for p_rgh, Initial residual = 0.027185, Final residual = 2.34448e-07, No Iterations 5
diagonal:  Solving for rho, Initial residual = 0, Final residual = 0, No Iterations 0
time step continuity errors : sum local = 6.53608e-09, global = 1.08297e-09, cumulative = 1.34911e-06
GAMGPCG:  Solving for p_rgh, Initial residual = 0.00468702, Final residual = 4.44615e-07, No Iterations 4
diagonal:  Solving for rho, Initial residual = 0, Final residual = 0, No Iterations 0
time step continuity errors : sum local = 1.22056e-08, global = -2.33207e-10, cumulative = 1.34888e-06
DILUPBiCGStab:  Solving for omega, Initial residual = 8.89909e-05, Final residual = 1.90145e-09, No Iterations 2
DILUPBiCGStab:  Solving for k, Initial residual = 0.00326954, Final residual = 5.71762e-09, No Iterations 3

ExecutionTime = 296.04 s  ClockTime = 296 s

    Overall     = 0.00134651, 0.01
Time = 2498

diagonal:  Solving for rho, Initial residual = 0, Final residual = 0, No Iterations 0

Execution time for mesh.update() = 0 s

DILUPBiCGStab:  Solving for Ux, Initial residual = 0.00413877, Final residual = 8.25267e-09, No Iterations 3
DILUPBiCGStab:  Solving for Uy, Initial residual = 0.00387102, Final residual = 7.27129e-09, No Iterations 3
DILUPBiCGStab:  Solving for O2, Initial residual = 0.00189781, Final residual = 3.40844e-09, No Iterations 3
DILUPBiCGStab:  Solving for H2O, Initial residual = 0.00189781, Final residual = 3.40844e-09, No Iterations 3
DILUPBiCGStab:  Solving for CH4, Initial residual = 0, Final residual = 0, No Iterations 0
DILUPBiCGStab:  Solving for CO2, Initial residual = 0.00189781, Final residual = 3.40844e-09, No Iterations 3
DILUPBiCGStab:  Solving for h, Initial residual = 0.00214709, Final residual = 3.32941e-09, No Iterations 3
min/max(T) = 300, 1044.97
GAMGPCG:  Solving for p_rgh, Initial residual = 0.027091, Final residual = 2.36911e-07, No Iterations 5
diagonal:  Solving for rho, Initial residual = 0, Final residual = 0, No Iterations 0
time step continuity errors : sum local = 6.59125e-09, global = 6.92823e-10, cumulative = 1.34957e-06
GAMGPCG:  Solving for p_rgh, Initial residual = 0.00449659, Final residual = 4.25812e-07, No Iterations 4
diagonal:  Solving for rho, Initial residual = 0, Final residual = 0, No Iterations 0
time step continuity errors : sum local = 1.17295e-08, global = 1.44822e-09, cumulative = 1.35102e-06
DILUPBiCGStab:  Solving for omega, Initial residual = 8.93116e-05, Final residual = 1.86052e-09, No Iterations 2
DILUPBiCGStab:  Solving for k, Initial residual = 0.00327938, Final residual = 5.56519e-09, No Iterations 3

ExecutionTime = 296.16 s  ClockTime = 296 s

    Overall     = 0.00134089, 0.01
Time = 2499

diagonal:  Solving for rho, Initial residual = 0, Final residual = 0, No Iterations 0

Execution time for mesh.update() = 0 s

DILUPBiCGStab:  Solving for Ux, Initial residual = 0.00416115, Final residual = 1.06093e-09, No Iterations 3
DILUPBiCGStab:  Solving for Uy, Initial residual = 0.00390393, Final residual = 7.09855e-09, No Iterations 3
DILUPBiCGStab:  Solving for O2, Initial residual = 0.00189094, Final residual = 2.79704e-09, No Iterations 3
DILUPBiCGStab:  Solving for H2O, Initial residual = 0.00189094, Final residual = 2.79704e-09, No Iterations 3
DILUPBiCGStab:  Solving for CH4, Initial residual = 0, Final residual = 0, No Iterations 0
DILUPBiCGStab:  Solving for CO2, Initial residual = 0.00189094, Final residual = 2.79704e-09, No Iterations 3
DILUPBiCGStab:  Solving for h, Initial residual = 0.00213766, Final residual = 2.90981e-09, No Iterations 3
min/max(T) = 300, 1044.97
GAMGPCG:  Solving for p_rgh, Initial residual = 0.0275736, Final residual = 2.55864e-07, No Iterations 5
diagonal:  Solving for rho, Initial residual = 0, Final residual = 0, No Iterations 0
time step continuity errors : sum local = 7.0999e-09, global = 1.23795e-09, cumulative = 1.35226e-06
GAMGPCG:  Solving for p_rgh, Initial residual = 0.00460778, Final residual = 4.39741e-07, No Iterations 4
diagonal:  Solving for rho, Initial residual = 0, Final residual = 0, No Iterations 0
time step continuity errors : sum local = 1.20817e-08, global = 1.79745e-09, cumulative = 1.35405e-06
DILUPBiCGStab:  Solving for omega, Initial residual = 9.00499e-05, Final residual = 1.72657e-09, No Iterations 2
DILUPBiCGStab:  Solving for k, Initial residual = 0.00327025, Final residual = 8.63322e-09, No Iterations 3

ExecutionTime = 296.28 s  ClockTime = 296 s

    Overall     = 0.00134268, 0.01
Time = 2500

diagonal:  Solving for rho, Initial residual = 0, Final residual = 0, No Iterations 0

Execution time for mesh.update() = 0 s

DILUPBiCGStab:  Solving for Ux, Initial residual = 0.00415515, Final residual = 1.00092e-09, No Iterations 3
DILUPBiCGStab:  Solving for Uy, Initial residual = 0.00392684, Final residual = 7.78679e-09, No Iterations 3
GAMGPCG:  Solving for G, Initial residual = 0.163423, Final residual = 4.01867e-05, No Iterations 6
DILUPBiCGStab:  Solving for O2, Initial residual = 0.00188819, Final residual = 2.73943e-09, No Iterations 3
DILUPBiCGStab:  Solving for H2O, Initial residual = 0.00188819, Final residual = 2.73943e-09, No Iterations 3
DILUPBiCGStab:  Solving for CH4, Initial residual = 0, Final residual = 0, No Iterations 0
DILUPBiCGStab:  Solving for CO2, Initial residual = 0.00188819, Final residual = 2.73943e-09, No Iterations 3
DILUPBiCGStab:  Solving for h, Initial residual = 0.002137, Final residual = 2.83337e-09, No Iterations 3
min/max(T) = 300, 1044.97
GAMGPCG:  Solving for p_rgh, Initial residual = 0.0264569, Final residual = 2.37946e-07, No Iterations 5
diagonal:  Solving for rho, Initial residual = 0, Final residual = 0, No Iterations 0
time step continuity errors : sum local = 6.50347e-09, global = 1.36279e-09, cumulative = 1.35542e-06
GAMGPCG:  Solving for p_rgh, Initial residual = 0.00470286, Final residual = 4.20167e-07, No Iterations 4
diagonal:  Solving for rho, Initial residual = 0, Final residual = 0, No Iterations 0
time step continuity errors : sum local = 1.17929e-08, global = 2.15073e-09, cumulative = 1.35757e-06
DILUPBiCGStab:  Solving for omega, Initial residual = 9.03579e-05, Final residual = 1.67053e-09, No Iterations 2
DILUPBiCGStab:  Solving for k, Initial residual = 0.00327288, Final residual = 6.34146e-09, No Iterations 3

ExecutionTime = 296.53 s  ClockTime = 296 s


Patch Mean : 301.709
Patch Variance : 0.00216581
Patch Gradient : 0.119682
End
