/*---------------------------------------------------------------------------*\
  =========                 |
  \\      /  F ield         | OpenFOAM: The Open Source CFD Toolbox
   \\    /   O peration     | Website:  https://openfoam.org
    \\  /    A nd           | Version:  dev
     \\/     M anipulation  |
\*---------------------------------------------------------------------------*/
Build  : dev-cabe48fb62c1
Exec   : fireDyMFoam
Date   : Apr 15 2019
Time   : 13:06:09
Host   : "Host"
PID    : 3392
I/O    : uncollated
Case   : /home/tesla/OpenFOAM/tesla-dev/run/rollerOpt_COBYLA_NEW
nProcs : 1
sigFpe : Enabling floating point exception trapping (FOAM_SIGFPE).
fileModificationChecking : Monitoring run-time modified files using timeStampMaster (fileModificationSkew 10)
allowSystemOperations : Allowing user-supplied system call operations

// * * * * * * * * * * * * * * * * * * * * * * * * * * * * * * * * * * * * * //
Create time

--> FOAM Warning : 
    From function void* Foam::dlOpen(const Foam::fileName&, bool)
    in file POSIX.C at line 1268
    dlopen error : libgroovyBC.so: cannot open shared object file: No such file or directory
--> FOAM Warning : 
    From function bool Foam::dlLibraryTable::open(const Foam::fileName&, bool)
    in file db/dynamicLibrary/dlLibraryTable/dlLibraryTable.C at line 105
    could not load "libgroovyBC.so"
Create mesh for time = 250

Selecting dynamicFvMesh dynamicRefineFvMesh
Detected 536 cells that are protected from refinement. Writing these to cellSet protectedCells.

PIMPLE: No convergence criteria found


PIMPLE: Operating solver in PISO mode


Initializing Solver

Selecting thermodynamics package 
{
    type            hePsiThermo;
    mixture         reactingMixture;
    transport       sutherland;
    thermo          janaf;
    energy          sensibleEnthalpy;
    equationOfState perfectGas;
    specie          specie;
}

Selecting chemistryReader foamChemistryReader
    elements not defined in "/home/tesla/OpenFOAM/tesla-dev/run/rollerOpt_COBYLA_NEW/constant/reactions"
Reading/calculating face flux field phi

No MRF models present

Selecting turbulence model type RAS
Selecting RAS turbulence model kOmegaSST
Selecting patchDistMethod meshWave
kOmegaSSTCoeffs
{
    delta           cubeRootVol;
    cubeRootVolCoeffs
    {
        deltaCoeff      1;
    }
    alphaK1         0.85;
    alphaK2         1;
    alphaOmega1     0.5;
    alphaOmega2     0.856;
    gamma1          0.555556;
    gamma2          0.44;
    beta1           0.075;
    beta2           0.0828;
    betaStar        0.09;
    a1              0.31;
    b1              1;
    c1              10;
    F3              false;
}

Selecting combustion model none<psiThermoCombustion>
--> FOAM Warning : 
    From function static Foam::autoPtr<T> Foam::combustionModel::New(typename CombustionModel::reactionThermo&, const Foam::compressibleTurbulenceModel&, const Foam::word&) [with CombustionModel = Foam::CombustionModel<Foam::psiReactionThermo>; typename CombustionModel::reactionThermo = Foam::psiReactionThermo]
    in file /home/tesla/OpenFOAM/OpenFOAM-dev/src/combustionModels/lnInclude/combustionModelTemplates.C at line 69
    Template parameters are no longer required when selecting a combustionModel. This information is now obtained directly from the thermodynamics. Actually selecting combustion model none.

Reading g

Reading hRef
Calculating field g.h


Reading pRef
Selecting radiationModel P1
Selecting absorptionEmissionModel greyMeanAbsorptionEmission
Selecting scatterModel none
Selecting sootModel none
Creating finite volume options from "system/fvOptions"

No finite volume options present
Using LTS

Starting time loop

Using dynamicCode for functionObject patchCalcs at line 64 in "/home/tesla/OpenFOAM/tesla-dev/run/rollerOpt_COBYLA_NEW/system/controlDict.functions.patchCalcs"
    Overall     = 0.00166265, 0.01
Time = 251

diagonal:  Solving for rho, Initial residual = 0, Final residual = 0, No Iterations 0

Execution time for mesh.update() = 0 s

DILUPBiCGStab:  Solving for Ux, Initial residual = 0.00517341, Final residual = 3.79409e-09, No Iterations 3
DILUPBiCGStab:  Solving for Uy, Initial residual = 0.00798447, Final residual = 6.66417e-09, No Iterations 3
GAMGPCG:  Solving for G, Initial residual = 0.0320825, Final residual = 9.34371e-05, No Iterations 3
DILUPBiCGStab:  Solving for O2, Initial residual = 0.00276805, Final residual = 2.22404e-09, No Iterations 3
DILUPBiCGStab:  Solving for H2O, Initial residual = 0.00276809, Final residual = 2.22419e-09, No Iterations 3
DILUPBiCGStab:  Solving for CH4, Initial residual = 0, Final residual = 0, No Iterations 0
DILUPBiCGStab:  Solving for CO2, Initial residual = 0.00276809, Final residual = 2.22424e-09, No Iterations 3
DILUPBiCGStab:  Solving for h, Initial residual = 0.00320665, Final residual = 2.08974e-09, No Iterations 3
min/max(T) = 299.557, 1044.97
GAMGPCG:  Solving for p_rgh, Initial residual = 0.0190057, Final residual = 7.4718e-07, No Iterations 4
diagonal:  Solving for rho, Initial residual = 0, Final residual = 0, No Iterations 0
time step continuity errors : sum local = 2.47314e-06, global = -1.38686e-07, cumulative = -1.38686e-07
GAMGPCG:  Solving for p_rgh, Initial residual = 0.0025211, Final residual = 1.71774e-07, No Iterations 4
diagonal:  Solving for rho, Initial residual = 0, Final residual = 0, No Iterations 0
time step continuity errors : sum local = 2.46429e-06, global = -1.36141e-07, cumulative = -2.74827e-07
DILUPBiCGStab:  Solving for omega, Initial residual = 0.000108324, Final residual = 1.28645e-09, No Iterations 2
DILUPBiCGStab:  Solving for k, Initial residual = 0.00579379, Final residual = 5.69052e-09, No Iterations 3

ExecutionTime = 0.38 s  ClockTime = 0 s

    Overall     = 0.00165661, 0.01
Time = 252

diagonal:  Solving for rho, Initial residual = 0, Final residual = 0, No Iterations 0

Execution time for mesh.update() = 0 s

DILUPBiCGStab:  Solving for Ux, Initial residual = 0.00515873, Final residual = 3.91999e-09, No Iterations 3
DILUPBiCGStab:  Solving for Uy, Initial residual = 0.00798389, Final residual = 7.72171e-09, No Iterations 3
DILUPBiCGStab:  Solving for O2, Initial residual = 0.00277163, Final residual = 2.04305e-09, No Iterations 3
DILUPBiCGStab:  Solving for H2O, Initial residual = 0.0027718, Final residual = 2.04353e-09, No Iterations 3
DILUPBiCGStab:  Solving for CH4, Initial residual = 0, Final residual = 0, No Iterations 0
DILUPBiCGStab:  Solving for CO2, Initial residual = 0.0027718, Final residual = 2.04355e-09, No Iterations 3
DILUPBiCGStab:  Solving for h, Initial residual = 0.00321355, Final residual = 1.95217e-09, No Iterations 3
min/max(T) = 299.566, 1044.97
GAMGPCG:  Solving for p_rgh, Initial residual = 0.0190631, Final residual = 8.09857e-07, No Iterations 4
diagonal:  Solving for rho, Initial residual = 0, Final residual = 0, No Iterations 0
time step continuity errors : sum local = 4.89903e-08, global = 3.30421e-09, cumulative = -2.71523e-07
GAMGPCG:  Solving for p_rgh, Initial residual = 0.00240112, Final residual = 1.82029e-07, No Iterations 4
diagonal:  Solving for rho, Initial residual = 0, Final residual = 0, No Iterations 0
time step continuity errors : sum local = 1.02913e-08, global = 1.25938e-09, cumulative = -2.70264e-07
DILUPBiCGStab:  Solving for omega, Initial residual = 0.000108028, Final residual = 1.31279e-09, No Iterations 2
DILUPBiCGStab:  Solving for k, Initial residual = 0.00582111, Final residual = 4.89215e-09, No Iterations 3

ExecutionTime = 0.49 s  ClockTime = 0 s

    Overall     = 0.00164646, 0.01
Time = 253

diagonal:  Solving for rho, Initial residual = 0, Final residual = 0, No Iterations 0

Execution time for mesh.update() = 0 s

DILUPBiCGStab:  Solving for Ux, Initial residual = 0.00516051, Final residual = 4.26605e-09, No Iterations 3
DILUPBiCGStab:  Solving for Uy, Initial residual = 0.00801403, Final residual = 6.57942e-09, No Iterations 3
DILUPBiCGStab:  Solving for O2, Initial residual = 0.00278273, Final residual = 2.11169e-09, No Iterations 3
DILUPBiCGStab:  Solving for H2O, Initial residual = 0.00278272, Final residual = 2.11221e-09, No Iterations 3
DILUPBiCGStab:  Solving for CH4, Initial residual = 0, Final residual = 0, No Iterations 0
DILUPBiCGStab:  Solving for CO2, Initial residual = 0.00278272, Final residual = 2.1122e-09, No Iterations 3
DILUPBiCGStab:  Solving for h, Initial residual = 0.0032318, Final residual = 1.91694e-09, No Iterations 3
min/max(T) = 299.571, 1044.97
GAMGPCG:  Solving for p_rgh, Initial residual = 0.0188555, Final residual = 9.02499e-07, No Iterations 4
diagonal:  Solving for rho, Initial residual = 0, Final residual = 0, No Iterations 0
time step continuity errors : sum local = 5.3565e-08, global = 4.32415e-10, cumulative = -2.69831e-07
GAMGPCG:  Solving for p_rgh, Initial residual = 0.00235579, Final residual = 1.6147e-07, No Iterations 4
diagonal:  Solving for rho, Initial residual = 0, Final residual = 0, No Iterations 0
time step continuity errors : sum local = 9.05871e-09, global = 1.13933e-09, cumulative = -2.68692e-07
DILUPBiCGStab:  Solving for omega, Initial residual = 0.000108944, Final residual = 1.25101e-09, No Iterations 2
DILUPBiCGStab:  Solving for k, Initial residual = 0.00584101, Final residual = 4.59877e-09, No Iterations 3

ExecutionTime = 0.61 s  ClockTime = 1 s

    Overall     = 0.00164162, 0.01
Time = 254

diagonal:  Solving for rho, Initial residual = 0, Final residual = 0, No Iterations 0

Execution time for mesh.update() = 0 s

DILUPBiCGStab:  Solving for Ux, Initial residual = 0.00515363, Final residual = 5.8983e-09, No Iterations 3
DILUPBiCGStab:  Solving for Uy, Initial residual = 0.00805126, Final residual = 8.18992e-09, No Iterations 3
DILUPBiCGStab:  Solving for O2, Initial residual = 0.00279341, Final residual = 1.97827e-09, No Iterations 3
DILUPBiCGStab:  Solving for H2O, Initial residual = 0.00279356, Final residual = 1.97849e-09, No Iterations 3
DILUPBiCGStab:  Solving for CH4, Initial residual = 0, Final residual = 0, No Iterations 0
DILUPBiCGStab:  Solving for CO2, Initial residual = 0.00279356, Final residual = 1.97848e-09, No Iterations 3
DILUPBiCGStab:  Solving for h, Initial residual = 0.00324599, Final residual = 1.85618e-09, No Iterations 3
min/max(T) = 299.585, 1044.97
GAMGPCG:  Solving for p_rgh, Initial residual = 0.0196693, Final residual = 8.67657e-07, No Iterations 4
diagonal:  Solving for rho, Initial residual = 0, Final residual = 0, No Iterations 0
time step continuity errors : sum local = 5.16394e-08, global = 1.8137e-09, cumulative = -2.66878e-07
GAMGPCG:  Solving for p_rgh, Initial residual = 0.00233705, Final residual = 1.96113e-07, No Iterations 4
diagonal:  Solving for rho, Initial residual = 0, Final residual = 0, No Iterations 0
time step continuity errors : sum local = 1.10123e-08, global = 1.30332e-09, cumulative = -2.65575e-07
DILUPBiCGStab:  Solving for omega, Initial residual = 0.000108703, Final residual = 1.2502e-09, No Iterations 2
DILUPBiCGStab:  Solving for k, Initial residual = 0.00587492, Final residual = 4.75834e-09, No Iterations 3

ExecutionTime = 0.73 s  ClockTime = 1 s

    Overall     = 0.00163398, 0.01
Time = 255

diagonal:  Solving for rho, Initial residual = 0, Final residual = 0, No Iterations 0

Execution time for mesh.update() = 0 s

DILUPBiCGStab:  Solving for Ux, Initial residual = 0.00515926, Final residual = 5.69367e-09, No Iterations 3
DILUPBiCGStab:  Solving for Uy, Initial residual = 0.00808017, Final residual = 6.72305e-09, No Iterations 3
DILUPBiCGStab:  Solving for O2, Initial residual = 0.00280329, Final residual = 1.93407e-09, No Iterations 3
DILUPBiCGStab:  Solving for H2O, Initial residual = 0.00280327, Final residual = 1.93392e-09, No Iterations 3
DILUPBiCGStab:  Solving for CH4, Initial residual = 0, Final residual = 0, No Iterations 0
DILUPBiCGStab:  Solving for CO2, Initial residual = 0.00280327, Final residual = 1.93391e-09, No Iterations 3
DILUPBiCGStab:  Solving for h, Initial residual = 0.00325928, Final residual = 1.82108e-09, No Iterations 3
min/max(T) = 299.595, 1044.97
GAMGPCG:  Solving for p_rgh, Initial residual = 0.0198185, Final residual = 9.97319e-07, No Iterations 4
diagonal:  Solving for rho, Initial residual = 0, Final residual = 0, No Iterations 0
time step continuity errors : sum local = 5.89731e-08, global = -3.01341e-09, cumulative = -2.68588e-07
GAMGPCG:  Solving for p_rgh, Initial residual = 0.00235154, Final residual = 1.42649e-07, No Iterations 4
diagonal:  Solving for rho, Initial residual = 0, Final residual = 0, No Iterations 0
time step continuity errors : sum local = 7.93642e-09, global = 9.33194e-10, cumulative = -2.67655e-07
DILUPBiCGStab:  Solving for omega, Initial residual = 0.000108959, Final residual = 1.22885e-09, No Iterations 2
DILUPBiCGStab:  Solving for k, Initial residual = 0.00589703, Final residual = 9.93363e-09, No Iterations 3

ExecutionTime = 0.84 s  ClockTime = 1 s

    Overall     = 0.00163115, 0.01
Time = 256

diagonal:  Solving for rho, Initial residual = 0, Final residual = 0, No Iterations 0

Execution time for mesh.update() = 0 s

DILUPBiCGStab:  Solving for Ux, Initial residual = 0.00515789, Final residual = 7.7567e-09, No Iterations 3
DILUPBiCGStab:  Solving for Uy, Initial residual = 0.00810125, Final residual = 7.08497e-09, No Iterations 3
DILUPBiCGStab:  Solving for O2, Initial residual = 0.00280791, Final residual = 1.73097e-09, No Iterations 3
DILUPBiCGStab:  Solving for H2O, Initial residual = 0.002808, Final residual = 1.73089e-09, No Iterations 3
DILUPBiCGStab:  Solving for CH4, Initial residual = 0, Final residual = 0, No Iterations 0
DILUPBiCGStab:  Solving for CO2, Initial residual = 0.002808, Final residual = 1.73089e-09, No Iterations 3
DILUPBiCGStab:  Solving for h, Initial residual = 0.00326988, Final residual = 1.69331e-09, No Iterations 3
min/max(T) = 299.607, 1044.97
GAMGPCG:  Solving for p_rgh, Initial residual = 0.0199583, Final residual = 8.50479e-07, No Iterations 4
diagonal:  Solving for rho, Initial residual = 0, Final residual = 0, No Iterations 0
time step continuity errors : sum local = 5.04414e-08, global = -3.80066e-09, cumulative = -2.71456e-07
GAMGPCG:  Solving for p_rgh, Initial residual = 0.00239167, Final residual = 1.33241e-07, No Iterations 4
diagonal:  Solving for rho, Initial residual = 0, Final residual = 0, No Iterations 0
time step continuity errors : sum local = 7.50654e-09, global = 6.35256e-10, cumulative = -2.70821e-07
DILUPBiCGStab:  Solving for omega, Initial residual = 0.000108263, Final residual = 1.21421e-09, No Iterations 2
DILUPBiCGStab:  Solving for k, Initial residual = 0.00591508, Final residual = 7.96452e-09, No Iterations 3

ExecutionTime = 0.96 s  ClockTime = 1 s

    Overall     = 0.00162629, 0.01
Time = 257

diagonal:  Solving for rho, Initial residual = 0, Final residual = 0, No Iterations 0

Execution time for mesh.update() = 0 s

DILUPBiCGStab:  Solving for Ux, Initial residual = 0.00517605, Final residual = 5.42115e-09, No Iterations 3
DILUPBiCGStab:  Solving for Uy, Initial residual = 0.00812497, Final residual = 6.77872e-09, No Iterations 3
DILUPBiCGStab:  Solving for O2, Initial residual = 0.00281363, Final residual = 1.7211e-09, No Iterations 3
DILUPBiCGStab:  Solving for H2O, Initial residual = 0.00281352, Final residual = 1.72105e-09, No Iterations 3
DILUPBiCGStab:  Solving for CH4, Initial residual = 0, Final residual = 0, No Iterations 0
DILUPBiCGStab:  Solving for CO2, Initial residual = 0.00281352, Final residual = 1.72106e-09, No Iterations 3
DILUPBiCGStab:  Solving for h, Initial residual = 0.00327676, Final residual = 1.68609e-09, No Iterations 3
min/max(T) = 299.618, 1044.97
GAMGPCG:  Solving for p_rgh, Initial residual = 0.0197479, Final residual = 8.16696e-07, No Iterations 4
diagonal:  Solving for rho, Initial residual = 0, Final residual = 0, No Iterations 0
time step continuity errors : sum local = 4.81541e-08, global = -2.30978e-09, cumulative = -2.7313e-07
GAMGPCG:  Solving for p_rgh, Initial residual = 0.00241792, Final residual = 1.49724e-07, No Iterations 4
diagonal:  Solving for rho, Initial residual = 0, Final residual = 0, No Iterations 0
time step continuity errors : sum local = 8.3825e-09, global = 1.11147e-09, cumulative = -2.72019e-07
DILUPBiCGStab:  Solving for omega, Initial residual = 0.00010851, Final residual = 1.2878e-09, No Iterations 2
DILUPBiCGStab:  Solving for k, Initial residual = 0.0059543, Final residual = 9.75993e-09, No Iterations 3

ExecutionTime = 1.07 s  ClockTime = 1 s

    Overall     = 0.00162667, 0.01
Time = 258

diagonal:  Solving for rho, Initial residual = 0, Final residual = 0, No Iterations 0

Execution time for mesh.update() = 0 s

DILUPBiCGStab:  Solving for Ux, Initial residual = 0.00516547, Final residual = 4.85186e-09, No Iterations 3
DILUPBiCGStab:  Solving for Uy, Initial residual = 0.00811706, Final residual = 6.4408e-09, No Iterations 3
DILUPBiCGStab:  Solving for O2, Initial residual = 0.00283042, Final residual = 1.73864e-09, No Iterations 3
DILUPBiCGStab:  Solving for H2O, Initial residual = 0.00283047, Final residual = 1.73862e-09, No Iterations 3
DILUPBiCGStab:  Solving for CH4, Initial residual = 0, Final residual = 0, No Iterations 0
DILUPBiCGStab:  Solving for CO2, Initial residual = 0.00283047, Final residual = 1.73862e-09, No Iterations 3
DILUPBiCGStab:  Solving for h, Initial residual = 0.00329439, Final residual = 1.7276e-09, No Iterations 3
min/max(T) = 299.631, 1044.97
GAMGPCG:  Solving for p_rgh, Initial residual = 0.0198789, Final residual = 6.98444e-07, No Iterations 4
diagonal:  Solving for rho, Initial residual = 0, Final residual = 0, No Iterations 0
time step continuity errors : sum local = 4.13797e-08, global = -4.09836e-11, cumulative = -2.7206e-07
GAMGPCG:  Solving for p_rgh, Initial residual = 0.00240044, Final residual = 1.36929e-07, No Iterations 4
diagonal:  Solving for rho, Initial residual = 0, Final residual = 0, No Iterations 0
time step continuity errors : sum local = 7.72767e-09, global = 7.19624e-10, cumulative = -2.7134e-07
DILUPBiCGStab:  Solving for omega, Initial residual = 0.000108372, Final residual = 1.28207e-09, No Iterations 2
DILUPBiCGStab:  Solving for k, Initial residual = 0.00599376, Final residual = 5.26934e-09, No Iterations 3

ExecutionTime = 1.19 s  ClockTime = 1 s

    Overall     = 0.00162564, 0.01
Time = 259

diagonal:  Solving for rho, Initial residual = 0, Final residual = 0, No Iterations 0

Execution time for mesh.update() = 0 s

DILUPBiCGStab:  Solving for Ux, Initial residual = 0.00517012, Final residual = 4.37229e-09, No Iterations 3
DILUPBiCGStab:  Solving for Uy, Initial residual = 0.00813046, Final residual = 6.3415e-09, No Iterations 3
DILUPBiCGStab:  Solving for O2, Initial residual = 0.00283564, Final residual = 1.86679e-09, No Iterations 3
DILUPBiCGStab:  Solving for H2O, Initial residual = 0.00283559, Final residual = 1.86684e-09, No Iterations 3
DILUPBiCGStab:  Solving for CH4, Initial residual = 0, Final residual = 0, No Iterations 0
DILUPBiCGStab:  Solving for CO2, Initial residual = 0.00283559, Final residual = 1.86684e-09, No Iterations 3
DILUPBiCGStab:  Solving for h, Initial residual = 0.00330565, Final residual = 1.92357e-09, No Iterations 3
min/max(T) = 299.641, 1044.97
GAMGPCG:  Solving for p_rgh, Initial residual = 0.0196903, Final residual = 6.70365e-07, No Iterations 4
diagonal:  Solving for rho, Initial residual = 0, Final residual = 0, No Iterations 0
time step continuity errors : sum local = 3.93853e-08, global = -1.54429e-09, cumulative = -2.72884e-07
GAMGPCG:  Solving for p_rgh, Initial residual = 0.0024352, Final residual = 1.65621e-07, No Iterations 4
diagonal:  Solving for rho, Initial residual = 0, Final residual = 0, No Iterations 0
time step continuity errors : sum local = 9.22268e-09, global = 1.16691e-09, cumulative = -2.71718e-07
DILUPBiCGStab:  Solving for omega, Initial residual = 0.00010883, Final residual = 1.33891e-09, No Iterations 2
DILUPBiCGStab:  Solving for k, Initial residual = 0.00603725, Final residual = 8.18783e-10, No Iterations 3

ExecutionTime = 1.3 s  ClockTime = 1 s

    Overall     = 0.00163025, 0.01
Time = 260

diagonal:  Solving for rho, Initial residual = 0, Final residual = 0, No Iterations 0

Execution time for mesh.update() = 0.01 s

DILUPBiCGStab:  Solving for Ux, Initial residual = 0.00517648, Final residual = 4.00051e-09, No Iterations 3
DILUPBiCGStab:  Solving for Uy, Initial residual = 0.0081335, Final residual = 7.08464e-09, No Iterations 3
GAMGPCG:  Solving for G, Initial residual = 0.129246, Final residual = 6.06349e-05, No Iterations 5
DILUPBiCGStab:  Solving for O2, Initial residual = 0.0028574, Final residual = 2.03204e-09, No Iterations 3
DILUPBiCGStab:  Solving for H2O, Initial residual = 0.00285744, Final residual = 2.03206e-09, No Iterations 3
DILUPBiCGStab:  Solving for CH4, Initial residual = 0, Final residual = 0, No Iterations 0
DILUPBiCGStab:  Solving for CO2, Initial residual = 0.00285744, Final residual = 2.03207e-09, No Iterations 3
DILUPBiCGStab:  Solving for h, Initial residual = 0.00333409, Final residual = 2.23499e-09, No Iterations 3
min/max(T) = 299.655, 1044.97
GAMGPCG:  Solving for p_rgh, Initial residual = 0.0202361, Final residual = 6.43827e-07, No Iterations 4
diagonal:  Solving for rho, Initial residual = 0, Final residual = 0, No Iterations 0
time step continuity errors : sum local = 3.79854e-08, global = 1.00383e-09, cumulative = -2.70714e-07
GAMGPCG:  Solving for p_rgh, Initial residual = 0.00250992, Final residual = 1.91147e-07, No Iterations 4
diagonal:  Solving for rho, Initial residual = 0, Final residual = 0, No Iterations 0
time step continuity errors : sum local = 1.06836e-08, global = 9.66968e-10, cumulative = -2.69747e-07
DILUPBiCGStab:  Solving for omega, Initial residual = 0.000109074, Final residual = 1.39323e-09, No Iterations 2
DILUPBiCGStab:  Solving for k, Initial residual = 0.00607598, Final residual = 4.8039e-09, No Iterations 3

ExecutionTime = 1.55 s  ClockTime = 2 s

    Overall     = 0.00163316, 0.01
Time = 261

diagonal:  Solving for rho, Initial residual = 0, Final residual = 0, No Iterations 0

Execution time for mesh.update() = 0 s

DILUPBiCGStab:  Solving for Ux, Initial residual = 0.00519249, Final residual = 4.37088e-09, No Iterations 3
DILUPBiCGStab:  Solving for Uy, Initial residual = 0.00818346, Final residual = 6.21317e-09, No Iterations 3
DILUPBiCGStab:  Solving for O2, Initial residual = 0.00286298, Final residual = 1.97636e-09, No Iterations 3
DILUPBiCGStab:  Solving for H2O, Initial residual = 0.00286292, Final residual = 1.97644e-09, No Iterations 3
DILUPBiCGStab:  Solving for CH4, Initial residual = 0, Final residual = 0, No Iterations 0
DILUPBiCGStab:  Solving for CO2, Initial residual = 0.00286292, Final residual = 1.97645e-09, No Iterations 3
DILUPBiCGStab:  Solving for h, Initial residual = 0.00334363, Final residual = 2.11526e-09, No Iterations 3
min/max(T) = 299.666, 1044.97
GAMGPCG:  Solving for p_rgh, Initial residual = 0.0200908, Final residual = 6.61149e-07, No Iterations 4
diagonal:  Solving for rho, Initial residual = 0, Final residual = 0, No Iterations 0
time step continuity errors : sum local = 3.88313e-08, global = 1.55004e-10, cumulative = -2.69592e-07
GAMGPCG:  Solving for p_rgh, Initial residual = 0.00246905, Final residual = 2.06657e-07, No Iterations 4
diagonal:  Solving for rho, Initial residual = 0, Final residual = 0, No Iterations 0
time step continuity errors : sum local = 1.16711e-08, global = 1.32249e-09, cumulative = -2.68269e-07
DILUPBiCGStab:  Solving for omega, Initial residual = 0.000110203, Final residual = 1.44829e-09, No Iterations 2
DILUPBiCGStab:  Solving for k, Initial residual = 0.0061172, Final residual = 2.96538e-09, No Iterations 3

ExecutionTime = 1.67 s  ClockTime = 2 s

    Overall     = 0.00164166, 0.01
Time = 262

diagonal:  Solving for rho, Initial residual = 0, Final residual = 0, No Iterations 0

Execution time for mesh.update() = 0 s

DILUPBiCGStab:  Solving for Ux, Initial residual = 0.00518912, Final residual = 3.83221e-09, No Iterations 3
DILUPBiCGStab:  Solving for Uy, Initial residual = 0.00817134, Final residual = 6.08284e-09, No Iterations 3
DILUPBiCGStab:  Solving for O2, Initial residual = 0.00288287, Final residual = 2.18442e-09, No Iterations 3
DILUPBiCGStab:  Solving for H2O, Initial residual = 0.00288292, Final residual = 2.18444e-09, No Iterations 3
DILUPBiCGStab:  Solving for CH4, Initial residual = 0, Final residual = 0, No Iterations 0
DILUPBiCGStab:  Solving for CO2, Initial residual = 0.00288292, Final residual = 2.18445e-09, No Iterations 3
DILUPBiCGStab:  Solving for h, Initial residual = 0.00336679, Final residual = 2.7757e-09, No Iterations 3
min/max(T) = 299.68, 1044.97
GAMGPCG:  Solving for p_rgh, Initial residual = 0.0205889, Final residual = 8.11173e-07, No Iterations 4
diagonal:  Solving for rho, Initial residual = 0, Final residual = 0, No Iterations 0
time step continuity errors : sum local = 4.71966e-08, global = 5.28521e-10, cumulative = -2.67741e-07
GAMGPCG:  Solving for p_rgh, Initial residual = 0.00249122, Final residual = 2.27652e-07, No Iterations 4
diagonal:  Solving for rho, Initial residual = 0, Final residual = 0, No Iterations 0
time step continuity errors : sum local = 1.28562e-08, global = 1.72971e-09, cumulative = -2.66011e-07
DILUPBiCGStab:  Solving for omega, Initial residual = 0.000109504, Final residual = 1.50244e-09, No Iterations 2
DILUPBiCGStab:  Solving for k, Initial residual = 0.00615901, Final residual = 5.59725e-09, No Iterations 3

ExecutionTime = 1.79 s  ClockTime = 2 s

    Overall     = 0.00164745, 0.01
Time = 263

diagonal:  Solving for rho, Initial residual = 0, Final residual = 0, No Iterations 0

Execution time for mesh.update() = 0 s

DILUPBiCGStab:  Solving for Ux, Initial residual = 0.00519635, Final residual = 4.2375e-09, No Iterations 3
DILUPBiCGStab:  Solving for Uy, Initial residual = 0.00819057, Final residual = 6.14971e-09, No Iterations 3
DILUPBiCGStab:  Solving for O2, Initial residual = 0.00288536, Final residual = 2.05287e-09, No Iterations 3
DILUPBiCGStab:  Solving for H2O, Initial residual = 0.00288531, Final residual = 2.05294e-09, No Iterations 3
DILUPBiCGStab:  Solving for CH4, Initial residual = 0, Final residual = 0, No Iterations 0
DILUPBiCGStab:  Solving for CO2, Initial residual = 0.00288531, Final residual = 2.05294e-09, No Iterations 3
DILUPBiCGStab:  Solving for h, Initial residual = 0.00337172, Final residual = 2.15624e-09, No Iterations 3
min/max(T) = 299.692, 1044.97
GAMGPCG:  Solving for p_rgh, Initial residual = 0.0203872, Final residual = 6.91505e-07, No Iterations 4
diagonal:  Solving for rho, Initial residual = 0, Final residual = 0, No Iterations 0
time step continuity errors : sum local = 3.99403e-08, global = 1.91404e-09, cumulative = -2.64097e-07
GAMGPCG:  Solving for p_rgh, Initial residual = 0.00251136, Final residual = 1.90903e-07, No Iterations 4
diagonal:  Solving for rho, Initial residual = 0, Final residual = 0, No Iterations 0
time step continuity errors : sum local = 1.08141e-08, global = 2.62561e-09, cumulative = -2.61471e-07
DILUPBiCGStab:  Solving for omega, Initial residual = 0.000110547, Final residual = 1.50469e-09, No Iterations 2
DILUPBiCGStab:  Solving for k, Initial residual = 0.0061923, Final residual = 5.54349e-09, No Iterations 3

ExecutionTime = 1.9 s  ClockTime = 2 s

    Overall     = 0.00165857, 0.01
Time = 264

diagonal:  Solving for rho, Initial residual = 0, Final residual = 0, No Iterations 0

Execution time for mesh.update() = 0 s

DILUPBiCGStab:  Solving for Ux, Initial residual = 0.00521138, Final residual = 4.01884e-09, No Iterations 3
DILUPBiCGStab:  Solving for Uy, Initial residual = 0.00819125, Final residual = 5.89885e-09, No Iterations 3
DILUPBiCGStab:  Solving for O2, Initial residual = 0.0028992, Final residual = 2.51866e-09, No Iterations 3
DILUPBiCGStab:  Solving for H2O, Initial residual = 0.00289924, Final residual = 2.51869e-09, No Iterations 3
DILUPBiCGStab:  Solving for CH4, Initial residual = 0, Final residual = 0, No Iterations 0
DILUPBiCGStab:  Solving for CO2, Initial residual = 0.00289924, Final residual = 2.51869e-09, No Iterations 3
DILUPBiCGStab:  Solving for h, Initial residual = 0.00338983, Final residual = 2.88725e-09, No Iterations 3
min/max(T) = 299.706, 1044.97
GAMGPCG:  Solving for p_rgh, Initial residual = 0.0205497, Final residual = 8.78852e-07, No Iterations 4
diagonal:  Solving for rho, Initial residual = 0, Final residual = 0, No Iterations 0
time step continuity errors : sum local = 5.07722e-08, global = 1.91912e-09, cumulative = -2.59552e-07
GAMGPCG:  Solving for p_rgh, Initial residual = 0.00255083, Final residual = 2.05794e-07, No Iterations 4
diagonal:  Solving for rho, Initial residual = 0, Final residual = 0, No Iterations 0
time step continuity errors : sum local = 1.14955e-08, global = 1.34255e-09, cumulative = -2.5821e-07
DILUPBiCGStab:  Solving for omega, Initial residual = 0.00011103, Final residual = 1.52163e-09, No Iterations 2
DILUPBiCGStab:  Solving for k, Initial residual = 0.00621908, Final residual = 1.30356e-09, No Iterations 3

ExecutionTime = 2.02 s  ClockTime = 2 s

    Overall     = 0.00166716, 0.01
Time = 265

diagonal:  Solving for rho, Initial residual = 0, Final residual = 0, No Iterations 0

Execution time for mesh.update() = 0 s

DILUPBiCGStab:  Solving for Ux, Initial residual = 0.00520907, Final residual = 4.12698e-09, No Iterations 3
DILUPBiCGStab:  Solving for Uy, Initial residual = 0.00819716, Final residual = 6.32476e-09, No Iterations 3
DILUPBiCGStab:  Solving for O2, Initial residual = 0.00291025, Final residual = 2.13491e-09, No Iterations 3
DILUPBiCGStab:  Solving for H2O, Initial residual = 0.00291019, Final residual = 2.135e-09, No Iterations 3
DILUPBiCGStab:  Solving for CH4, Initial residual = 0, Final residual = 0, No Iterations 0
DILUPBiCGStab:  Solving for CO2, Initial residual = 0.00291019, Final residual = 2.135e-09, No Iterations 3
DILUPBiCGStab:  Solving for h, Initial residual = 0.0034031, Final residual = 2.26e-09, No Iterations 3
min/max(T) = 299.72, 1044.97
GAMGPCG:  Solving for p_rgh, Initial residual = 0.020822, Final residual = 8.17869e-07, No Iterations 4
diagonal:  Solving for rho, Initial residual = 0, Final residual = 0, No Iterations 0
time step continuity errors : sum local = 4.68514e-08, global = 8.75861e-10, cumulative = -2.57334e-07
GAMGPCG:  Solving for p_rgh, Initial residual = 0.00262368, Final residual = 1.92612e-07, No Iterations 4
diagonal:  Solving for rho, Initial residual = 0, Final residual = 0, No Iterations 0
time step continuity errors : sum local = 1.06141e-08, global = 2.29279e-09, cumulative = -2.55041e-07
DILUPBiCGStab:  Solving for omega, Initial residual = 0.000111634, Final residual = 1.49436e-09, No Iterations 2
DILUPBiCGStab:  Solving for k, Initial residual = 0.00626014, Final residual = 4.57885e-09, No Iterations 3

ExecutionTime = 2.14 s  ClockTime = 2 s

    Overall     = 0.00168152, 0.01
Time = 266

diagonal:  Solving for rho, Initial residual = 0, Final residual = 0, No Iterations 0

Execution time for mesh.update() = 0 s

DILUPBiCGStab:  Solving for Ux, Initial residual = 0.00525017, Final residual = 4.09261e-09, No Iterations 3
DILUPBiCGStab:  Solving for Uy, Initial residual = 0.00817464, Final residual = 6.18658e-09, No Iterations 3
DILUPBiCGStab:  Solving for O2, Initial residual = 0.00292583, Final residual = 2.34176e-09, No Iterations 3
DILUPBiCGStab:  Solving for H2O, Initial residual = 0.00292588, Final residual = 2.34178e-09, No Iterations 3
DILUPBiCGStab:  Solving for CH4, Initial residual = 0, Final residual = 0, No Iterations 0
DILUPBiCGStab:  Solving for CO2, Initial residual = 0.00292588, Final residual = 2.34179e-09, No Iterations 3
DILUPBiCGStab:  Solving for h, Initial residual = 0.00342785, Final residual = 2.90229e-09, No Iterations 3
min/max(T) = 299.734, 1044.97
GAMGPCG:  Solving for p_rgh, Initial residual = 0.02133, Final residual = 7.8701e-07, No Iterations 4
diagonal:  Solving for rho, Initial residual = 0, Final residual = 0, No Iterations 0
time step continuity errors : sum local = 4.55092e-08, global = 5.57908e-10, cumulative = -2.54483e-07
GAMGPCG:  Solving for p_rgh, Initial residual = 0.00275098, Final residual = 1.91635e-07, No Iterations 4
diagonal:  Solving for rho, Initial residual = 0, Final residual = 0, No Iterations 0
time step continuity errors : sum local = 1.05177e-08, global = 9.68372e-10, cumulative = -2.53515e-07
DILUPBiCGStab:  Solving for omega, Initial residual = 0.000112518, Final residual = 1.58322e-09, No Iterations 2
DILUPBiCGStab:  Solving for k, Initial residual = 0.00630573, Final residual = 1.67307e-09, No Iterations 3

ExecutionTime = 2.25 s  ClockTime = 2 s

    Overall     = 0.00169234, 0.01
Time = 267

diagonal:  Solving for rho, Initial residual = 0, Final residual = 0, No Iterations 0

Execution time for mesh.update() = 0 s

DILUPBiCGStab:  Solving for Ux, Initial residual = 0.00526856, Final residual = 3.94396e-09, No Iterations 3
DILUPBiCGStab:  Solving for Uy, Initial residual = 0.00818555, Final residual = 6.59316e-09, No Iterations 3
DILUPBiCGStab:  Solving for O2, Initial residual = 0.00293352, Final residual = 2.3746e-09, No Iterations 3
DILUPBiCGStab:  Solving for H2O, Initial residual = 0.00293345, Final residual = 2.37473e-09, No Iterations 3
DILUPBiCGStab:  Solving for CH4, Initial residual = 0, Final residual = 0, No Iterations 0
DILUPBiCGStab:  Solving for CO2, Initial residual = 0.00293345, Final residual = 2.37473e-09, No Iterations 3
DILUPBiCGStab:  Solving for h, Initial residual = 0.00343984, Final residual = 2.76752e-09, No Iterations 3
min/max(T) = 299.743, 1044.97
GAMGPCG:  Solving for p_rgh, Initial residual = 0.0215734, Final residual = 6.66955e-07, No Iterations 4
diagonal:  Solving for rho, Initial residual = 0, Final residual = 0, No Iterations 0
time step continuity errors : sum local = 3.79774e-08, global = -1.72422e-09, cumulative = -2.55239e-07
GAMGPCG:  Solving for p_rgh, Initial residual = 0.00281957, Final residual = 1.6352e-07, No Iterations 4
diagonal:  Solving for rho, Initial residual = 0, Final residual = 0, No Iterations 0
time step continuity errors : sum local = 8.91497e-09, global = 1.54802e-09, cumulative = -2.53691e-07
DILUPBiCGStab:  Solving for omega, Initial residual = 0.000113908, Final residual = 1.55547e-09, No Iterations 2
DILUPBiCGStab:  Solving for k, Initial residual = 0.00636087, Final residual = 8.92474e-09, No Iterations 3

ExecutionTime = 2.37 s  ClockTime = 2 s

    Overall     = 0.00170553, 0.01
Time = 268

diagonal:  Solving for rho, Initial residual = 0, Final residual = 0, No Iterations 0

Execution time for mesh.update() = 0 s

DILUPBiCGStab:  Solving for Ux, Initial residual = 0.0052955, Final residual = 4.05958e-09, No Iterations 3
DILUPBiCGStab:  Solving for Uy, Initial residual = 0.00819175, Final residual = 6.17182e-09, No Iterations 3
DILUPBiCGStab:  Solving for O2, Initial residual = 0.00295519, Final residual = 2.24988e-09, No Iterations 3
DILUPBiCGStab:  Solving for H2O, Initial residual = 0.00295524, Final residual = 2.24989e-09, No Iterations 3
DILUPBiCGStab:  Solving for CH4, Initial residual = 0, Final residual = 0, No Iterations 0
DILUPBiCGStab:  Solving for CO2, Initial residual = 0.00295524, Final residual = 2.2499e-09, No Iterations 3
DILUPBiCGStab:  Solving for h, Initial residual = 0.00346088, Final residual = 2.82353e-09, No Iterations 3
min/max(T) = 299.749, 1044.97
GAMGPCG:  Solving for p_rgh, Initial residual = 0.0207224, Final residual = 7.36784e-07, No Iterations 4
diagonal:  Solving for rho, Initial residual = 0, Final residual = 0, No Iterations 0
time step continuity errors : sum local = 4.21108e-08, global = -2.4584e-09, cumulative = -2.56149e-07
GAMGPCG:  Solving for p_rgh, Initial residual = 0.00280291, Final residual = 1.51602e-07, No Iterations 4
diagonal:  Solving for rho, Initial residual = 0, Final residual = 0, No Iterations 0
time step continuity errors : sum local = 8.17842e-09, global = 1.38632e-09, cumulative = -2.54763e-07
DILUPBiCGStab:  Solving for omega, Initial residual = 0.000114392, Final residual = 1.64585e-09, No Iterations 2
bounding omega, min: -0.507264 max: 15708.5 average: 301.704
DILUPBiCGStab:  Solving for k, Initial residual = 0.00640051, Final residual = 4.12115e-09, No Iterations 3

ExecutionTime = 2.48 s  ClockTime = 2 s

    Overall     = 0.00166213, 0.01
Time = 269

diagonal:  Solving for rho, Initial residual = 0, Final residual = 0, No Iterations 0

Execution time for mesh.update() = 0 s

DILUPBiCGStab:  Solving for Ux, Initial residual = 0.0052833, Final residual = 4.06648e-09, No Iterations 3
DILUPBiCGStab:  Solving for Uy, Initial residual = 0.00814516, Final residual = 6.33702e-09, No Iterations 3
DILUPBiCGStab:  Solving for O2, Initial residual = 0.00295908, Final residual = 2.29618e-09, No Iterations 3
DILUPBiCGStab:  Solving for H2O, Initial residual = 0.00295925, Final residual = 2.29629e-09, No Iterations 3
DILUPBiCGStab:  Solving for CH4, Initial residual = 0, Final residual = 0, No Iterations 0
DILUPBiCGStab:  Solving for CO2, Initial residual = 0.00295925, Final residual = 2.29629e-09, No Iterations 3
DILUPBiCGStab:  Solving for h, Initial residual = 0.00346737, Final residual = 2.72723e-09, No Iterations 3
min/max(T) = 299.541, 1044.97
GAMGPCG:  Solving for p_rgh, Initial residual = 0.0211679, Final residual = 6.8026e-07, No Iterations 4
diagonal:  Solving for rho, Initial residual = 0, Final residual = 0, No Iterations 0
time step continuity errors : sum local = 3.82458e-08, global = -1.94301e-09, cumulative = -2.56706e-07
GAMGPCG:  Solving for p_rgh, Initial residual = 0.00265642, Final residual = 1.67432e-07, No Iterations 4
diagonal:  Solving for rho, Initial residual = 0, Final residual = 0, No Iterations 0
time step continuity errors : sum local = 9.16348e-09, global = 1.6935e-09, cumulative = -2.55013e-07
DILUPBiCGStab:  Solving for omega, Initial residual = 0.000115062, Final residual = 1.45396e-09, No Iterations 2
DILUPBiCGStab:  Solving for k, Initial residual = 0.00644148, Final residual = 7.58649e-09, No Iterations 3

ExecutionTime = 2.6 s  ClockTime = 3 s

    Overall     = 0.00164822, 0.01
Time = 270

diagonal:  Solving for rho, Initial residual = 0, Final residual = 0, No Iterations 0

Execution time for mesh.update() = 0 s

DILUPBiCGStab:  Solving for Ux, Initial residual = 0.00527642, Final residual = 4.03699e-09, No Iterations 3
DILUPBiCGStab:  Solving for Uy, Initial residual = 0.00815244, Final residual = 6.16651e-09, No Iterations 3
GAMGPCG:  Solving for G, Initial residual = 0.167702, Final residual = 5.27771e-05, No Iterations 6
DILUPBiCGStab:  Solving for O2, Initial residual = 0.0029769, Final residual = 2.39623e-09, No Iterations 3
DILUPBiCGStab:  Solving for H2O, Initial residual = 0.00297682, Final residual = 2.39662e-09, No Iterations 3
DILUPBiCGStab:  Solving for CH4, Initial residual = 0, Final residual = 0, No Iterations 0
DILUPBiCGStab:  Solving for CO2, Initial residual = 0.00297682, Final residual = 2.39663e-09, No Iterations 3
DILUPBiCGStab:  Solving for h, Initial residual = 0.00348783, Final residual = 2.97455e-09, No Iterations 3
min/max(T) = 299.75, 1044.97
GAMGPCG:  Solving for p_rgh, Initial residual = 0.0212569, Final residual = 8.16883e-07, No Iterations 4
diagonal:  Solving for rho, Initial residual = 0, Final residual = 0, No Iterations 0
time step continuity errors : sum local = 4.62187e-08, global = -8.4536e-10, cumulative = -2.55858e-07
GAMGPCG:  Solving for p_rgh, Initial residual = 0.00262634, Final residual = 1.56471e-07, No Iterations 4
diagonal:  Solving for rho, Initial residual = 0, Final residual = 0, No Iterations 0
time step continuity errors : sum local = 8.50313e-09, global = 1.48947e-09, cumulative = -2.54368e-07
DILUPBiCGStab:  Solving for omega, Initial residual = 0.000115735, Final residual = 1.44301e-09, No Iterations 2
DILUPBiCGStab:  Solving for k, Initial residual = 0.00648837, Final residual = 9.30725e-09, No Iterations 3

ExecutionTime = 2.85 s  ClockTime = 3 s

    Overall     = 0.00164178, 0.01
Time = 271

diagonal:  Solving for rho, Initial residual = 0, Final residual = 0, No Iterations 0

Execution time for mesh.update() = 0 s

DILUPBiCGStab:  Solving for Ux, Initial residual = 0.00530782, Final residual = 4.26497e-09, No Iterations 3
DILUPBiCGStab:  Solving for Uy, Initial residual = 0.00813483, Final residual = 6.3089e-09, No Iterations 3
DILUPBiCGStab:  Solving for O2, Initial residual = 0.00299554, Final residual = 3.01192e-09, No Iterations 3
DILUPBiCGStab:  Solving for H2O, Initial residual = 0.00299567, Final residual = 3.01203e-09, No Iterations 3
DILUPBiCGStab:  Solving for CH4, Initial residual = 0, Final residual = 0, No Iterations 0
DILUPBiCGStab:  Solving for CO2, Initial residual = 0.00299567, Final residual = 3.01203e-09, No Iterations 3
DILUPBiCGStab:  Solving for h, Initial residual = 0.00351711, Final residual = 3.32981e-09, No Iterations 3
min/max(T) = 299.654, 1044.97
GAMGPCG:  Solving for p_rgh, Initial residual = 0.0216917, Final residual = 7.88736e-07, No Iterations 4
diagonal:  Solving for rho, Initial residual = 0, Final residual = 0, No Iterations 0
time step continuity errors : sum local = 4.39139e-08, global = -1.40331e-09, cumulative = -2.55772e-07
GAMGPCG:  Solving for p_rgh, Initial residual = 0.00275293, Final residual = 1.68361e-07, No Iterations 4
diagonal:  Solving for rho, Initial residual = 0, Final residual = 0, No Iterations 0
time step continuity errors : sum local = 9.12804e-09, global = 1.8125e-09, cumulative = -2.53959e-07
DILUPBiCGStab:  Solving for omega, Initial residual = 0.000115318, Final residual = 1.43772e-09, No Iterations 2
DILUPBiCGStab:  Solving for k, Initial residual = 0.00653156, Final residual = 1.66894e-09, No Iterations 3

ExecutionTime = 2.96 s  ClockTime = 3 s

    Overall     = 0.00160896, 0.01
Time = 272

diagonal:  Solving for rho, Initial residual = 0, Final residual = 0, No Iterations 0

Execution time for mesh.update() = 0 s

DILUPBiCGStab:  Solving for Ux, Initial residual = 0.00532318, Final residual = 4.27936e-09, No Iterations 3
DILUPBiCGStab:  Solving for Uy, Initial residual = 0.00816768, Final residual = 5.90443e-09, No Iterations 3
DILUPBiCGStab:  Solving for O2, Initial residual = 0.00300578, Final residual = 2.79444e-09, No Iterations 3
DILUPBiCGStab:  Solving for H2O, Initial residual = 0.00300567, Final residual = 2.79474e-09, No Iterations 3
DILUPBiCGStab:  Solving for CH4, Initial residual = 0, Final residual = 0, No Iterations 0
DILUPBiCGStab:  Solving for CO2, Initial residual = 0.00300567, Final residual = 2.79473e-09, No Iterations 3
DILUPBiCGStab:  Solving for h, Initial residual = 0.00353247, Final residual = 3.34575e-09, No Iterations 3
min/max(T) = 299.746, 1044.97
GAMGPCG:  Solving for p_rgh, Initial residual = 0.0217092, Final residual = 7.62578e-07, No Iterations 4
diagonal:  Solving for rho, Initial residual = 0, Final residual = 0, No Iterations 0
time step continuity errors : sum local = 4.26353e-08, global = -9.48159e-10, cumulative = -2.54907e-07
GAMGPCG:  Solving for p_rgh, Initial residual = 0.00284948, Final residual = 1.73812e-07, No Iterations 4
diagonal:  Solving for rho, Initial residual = 0, Final residual = 0, No Iterations 0
time step continuity errors : sum local = 9.38911e-09, global = 1.01162e-09, cumulative = -2.53896e-07
DILUPBiCGStab:  Solving for omega, Initial residual = 0.000118283, Final residual = 1.33191e-09, No Iterations 2
DILUPBiCGStab:  Solving for k, Initial residual = 0.00656442, Final residual = 3.35202e-09, No Iterations 3

ExecutionTime = 3.08 s  ClockTime = 3 s

    Overall     = 0.00161261, 0.01
Time = 273

diagonal:  Solving for rho, Initial residual = 0, Final residual = 0, No Iterations 0

Execution time for mesh.update() = 0 s

DILUPBiCGStab:  Solving for Ux, Initial residual = 0.00534476, Final residual = 4.65566e-09, No Iterations 3
DILUPBiCGStab:  Solving for Uy, Initial residual = 0.00812436, Final residual = 6.32742e-09, No Iterations 3
DILUPBiCGStab:  Solving for O2, Initial residual = 0.00302606, Final residual = 2.75007e-09, No Iterations 3
DILUPBiCGStab:  Solving for H2O, Initial residual = 0.00302613, Final residual = 2.7501e-09, No Iterations 3
DILUPBiCGStab:  Solving for CH4, Initial residual = 0, Final residual = 0, No Iterations 0
DILUPBiCGStab:  Solving for CO2, Initial residual = 0.00302613, Final residual = 2.7501e-09, No Iterations 3
DILUPBiCGStab:  Solving for h, Initial residual = 0.00355652, Final residual = 3.44283e-09, No Iterations 3
min/max(T) = 299.724, 1044.97
GAMGPCG:  Solving for p_rgh, Initial residual = 0.0221062, Final residual = 6.68191e-07, No Iterations 4
diagonal:  Solving for rho, Initial residual = 0, Final residual = 0, No Iterations 0
time step continuity errors : sum local = 3.78394e-08, global = -6.23596e-10, cumulative = -2.54519e-07
GAMGPCG:  Solving for p_rgh, Initial residual = 0.00295377, Final residual = 2.02203e-07, No Iterations 4
diagonal:  Solving for rho, Initial residual = 0, Final residual = 0, No Iterations 0
time step continuity errors : sum local = 1.09142e-08, global = 1.27771e-09, cumulative = -2.53242e-07
DILUPBiCGStab:  Solving for omega, Initial residual = 0.000118022, Final residual = 1.48051e-09, No Iterations 2
bounding omega, min: -3.64743 max: 15706.4 average: 301.582
DILUPBiCGStab:  Solving for k, Initial residual = 0.00660431, Final residual = 2.05459e-09, No Iterations 3

ExecutionTime = 3.2 s  ClockTime = 3 s

    Overall     = 0.00156858, 0.01
Time = 274

diagonal:  Solving for rho, Initial residual = 0, Final residual = 0, No Iterations 0

Execution time for mesh.update() = 0 s

DILUPBiCGStab:  Solving for Ux, Initial residual = 0.00534953, Final residual = 4.35952e-09, No Iterations 3
DILUPBiCGStab:  Solving for Uy, Initial residual = 0.00812278, Final residual = 5.98399e-09, No Iterations 3
DILUPBiCGStab:  Solving for O2, Initial residual = 0.00302734, Final residual = 2.50277e-09, No Iterations 3
DILUPBiCGStab:  Solving for H2O, Initial residual = 0.00302754, Final residual = 2.50292e-09, No Iterations 3
DILUPBiCGStab:  Solving for CH4, Initial residual = 0, Final residual = 0, No Iterations 0
DILUPBiCGStab:  Solving for CO2, Initial residual = 0.00302754, Final residual = 2.50291e-09, No Iterations 3
DILUPBiCGStab:  Solving for h, Initial residual = 0.00356131, Final residual = 3.02622e-09, No Iterations 3
min/max(T) = 299.461, 1044.97
GAMGPCG:  Solving for p_rgh, Initial residual = 0.0216434, Final residual = 6.3347e-07, No Iterations 4
diagonal:  Solving for rho, Initial residual = 0, Final residual = 0, No Iterations 0
time step continuity errors : sum local = 3.55784e-08, global = -2.87041e-09, cumulative = -2.56112e-07
GAMGPCG:  Solving for p_rgh, Initial residual = 0.00287951, Final residual = 1.30204e-07, No Iterations 4
diagonal:  Solving for rho, Initial residual = 0, Final residual = 0, No Iterations 0
time step continuity errors : sum local = 7.01076e-09, global = 6.84146e-10, cumulative = -2.55428e-07
DILUPBiCGStab:  Solving for omega, Initial residual = 0.000116887, Final residual = 1.27754e-09, No Iterations 2
DILUPBiCGStab:  Solving for k, Initial residual = 0.00664699, Final residual = 4.81315e-09, No Iterations 3

ExecutionTime = 3.31 s  ClockTime = 3 s

    Overall     = 0.00155896, 0.01
Time = 275

diagonal:  Solving for rho, Initial residual = 0, Final residual = 0, No Iterations 0

Execution time for mesh.update() = 0.01 s

DILUPBiCGStab:  Solving for Ux, Initial residual = 0.00535899, Final residual = 5.04396e-09, No Iterations 3
DILUPBiCGStab:  Solving for Uy, Initial residual = 0.00809133, Final residual = 6.36438e-09, No Iterations 3
DILUPBiCGStab:  Solving for O2, Initial residual = 0.00303825, Final residual = 2.17943e-09, No Iterations 3
DILUPBiCGStab:  Solving for H2O, Initial residual = 0.00303814, Final residual = 2.17979e-09, No Iterations 3
DILUPBiCGStab:  Solving for CH4, Initial residual = 0, Final residual = 0, No Iterations 0
DILUPBiCGStab:  Solving for CO2, Initial residual = 0.00303814, Final residual = 2.17979e-09, No Iterations 3
DILUPBiCGStab:  Solving for h, Initial residual = 0.00357532, Final residual = 2.61555e-09, No Iterations 3
min/max(T) = 299.745, 1044.97
GAMGPCG:  Solving for p_rgh, Initial residual = 0.0216311, Final residual = 6.21711e-07, No Iterations 4
diagonal:  Solving for rho, Initial residual = 0, Final residual = 0, No Iterations 0
time step continuity errors : sum local = 3.48873e-08, global = -3.12573e-09, cumulative = -2.58554e-07
GAMGPCG:  Solving for p_rgh, Initial residual = 0.00282778, Final residual = 1.49295e-07, No Iterations 4
diagonal:  Solving for rho, Initial residual = 0, Final residual = 0, No Iterations 0
time step continuity errors : sum local = 8.26064e-09, global = 1.18326e-09, cumulative = -2.5737e-07
DILUPBiCGStab:  Solving for omega, Initial residual = 0.000120059, Final residual = 1.19533e-09, No Iterations 2
DILUPBiCGStab:  Solving for k, Initial residual = 0.00670643, Final residual = 1.24943e-09, No Iterations 3

ExecutionTime = 3.43 s  ClockTime = 3 s

    Overall     = 0.00155976, 0.01
Time = 276

diagonal:  Solving for rho, Initial residual = 0, Final residual = 0, No Iterations 0

Execution time for mesh.update() = 0 s

DILUPBiCGStab:  Solving for Ux, Initial residual = 0.00537025, Final residual = 5.29839e-09, No Iterations 3
DILUPBiCGStab:  Solving for Uy, Initial residual = 0.00809165, Final residual = 5.77293e-09, No Iterations 3
DILUPBiCGStab:  Solving for O2, Initial residual = 0.00305813, Final residual = 1.89826e-09, No Iterations 3
DILUPBiCGStab:  Solving for H2O, Initial residual = 0.00305827, Final residual = 1.89829e-09, No Iterations 3
DILUPBiCGStab:  Solving for CH4, Initial residual = 0, Final residual = 0, No Iterations 0
DILUPBiCGStab:  Solving for CO2, Initial residual = 0.00305827, Final residual = 1.89829e-09, No Iterations 3
DILUPBiCGStab:  Solving for h, Initial residual = 0.0035995, Final residual = 2.14183e-09, No Iterations 3
min/max(T) = 299.619, 1044.97
GAMGPCG:  Solving for p_rgh, Initial residual = 0.0210529, Final residual = 8.10934e-07, No Iterations 4
diagonal:  Solving for rho, Initial residual = 0, Final residual = 0, No Iterations 0
time step continuity errors : sum local = 4.50856e-08, global = -2.8353e-09, cumulative = -2.60206e-07
GAMGPCG:  Solving for p_rgh, Initial residual = 0.00280974, Final residual = 2.05605e-07, No Iterations 4
diagonal:  Solving for rho, Initial residual = 0, Final residual = 0, No Iterations 0
time step continuity errors : sum local = 1.09293e-08, global = 1.85953e-09, cumulative = -2.58346e-07
DILUPBiCGStab:  Solving for omega, Initial residual = 0.000119583, Final residual = 1.24858e-09, No Iterations 2
bounding omega, min: -2.88697 max: 15704.7 average: 301.521
DILUPBiCGStab:  Solving for k, Initial residual = 0.00676064, Final residual = 1.1153e-09, No Iterations 3

ExecutionTime = 3.55 s  ClockTime = 4 s

    Overall     = 0.00152687, 0.01
Time = 277

diagonal:  Solving for rho, Initial residual = 0, Final residual = 0, No Iterations 0

Execution time for mesh.update() = 0 s

DILUPBiCGStab:  Solving for Ux, Initial residual = 0.00535351, Final residual = 5.36575e-09, No Iterations 3
DILUPBiCGStab:  Solving for Uy, Initial residual = 0.00805505, Final residual = 5.95414e-09, No Iterations 3
DILUPBiCGStab:  Solving for O2, Initial residual = 0.00306408, Final residual = 1.83539e-09, No Iterations 3
DILUPBiCGStab:  Solving for H2O, Initial residual = 0.00306439, Final residual = 1.83548e-09, No Iterations 3
DILUPBiCGStab:  Solving for CH4, Initial residual = 0, Final residual = 0, No Iterations 0
DILUPBiCGStab:  Solving for CO2, Initial residual = 0.00306439, Final residual = 1.83548e-09, No Iterations 3
DILUPBiCGStab:  Solving for h, Initial residual = 0.00360527, Final residual = 2.08736e-09, No Iterations 3
min/max(T) = 299.406, 1044.97
GAMGPCG:  Solving for p_rgh, Initial residual = 0.0218369, Final residual = 8.30513e-07, No Iterations 4
diagonal:  Solving for rho, Initial residual = 0, Final residual = 0, No Iterations 0
time step continuity errors : sum local = 4.61251e-08, global = -3.36701e-09, cumulative = -2.61713e-07
GAMGPCG:  Solving for p_rgh, Initial residual = 0.00272017, Final residual = 2.40696e-07, No Iterations 4
diagonal:  Solving for rho, Initial residual = 0, Final residual = 0, No Iterations 0
time step continuity errors : sum local = 1.30653e-08, global = 2.72012e-09, cumulative = -2.58993e-07
DILUPBiCGStab:  Solving for omega, Initial residual = 0.00011722, Final residual = 1.14179e-09, No Iterations 2
DILUPBiCGStab:  Solving for k, Initial residual = 0.00680424, Final residual = 6.2392e-09, No Iterations 3

ExecutionTime = 3.66 s  ClockTime = 4 s

    Overall     = 0.00151858, 0.01
Time = 278

diagonal:  Solving for rho, Initial residual = 0, Final residual = 0, No Iterations 0

Execution time for mesh.update() = 0 s

DILUPBiCGStab:  Solving for Ux, Initial residual = 0.00538157, Final residual = 5.04771e-09, No Iterations 3
DILUPBiCGStab:  Solving for Uy, Initial residual = 0.00804237, Final residual = 5.71718e-09, No Iterations 3
DILUPBiCGStab:  Solving for O2, Initial residual = 0.00307614, Final residual = 1.79633e-09, No Iterations 3
DILUPBiCGStab:  Solving for H2O, Initial residual = 0.00307604, Final residual = 1.79641e-09, No Iterations 3
DILUPBiCGStab:  Solving for CH4, Initial residual = 0, Final residual = 0, No Iterations 0
DILUPBiCGStab:  Solving for CO2, Initial residual = 0.00307604, Final residual = 1.79641e-09, No Iterations 3
DILUPBiCGStab:  Solving for h, Initial residual = 0.00362472, Final residual = 2.02003e-09, No Iterations 3
min/max(T) = 299.768, 1044.97
GAMGPCG:  Solving for p_rgh, Initial residual = 0.0217686, Final residual = 8.67574e-07, No Iterations 4
diagonal:  Solving for rho, Initial residual = 0, Final residual = 0, No Iterations 0
time step continuity errors : sum local = 4.77402e-08, global = -2.96996e-09, cumulative = -2.61963e-07
GAMGPCG:  Solving for p_rgh, Initial residual = 0.00274272, Final residual = 3.35995e-07, No Iterations 4
diagonal:  Solving for rho, Initial residual = 0, Final residual = 0, No Iterations 0
time step continuity errors : sum local = 1.79418e-08, global = 2.9918e-09, cumulative = -2.58971e-07
DILUPBiCGStab:  Solving for omega, Initial residual = 0.000119133, Final residual = 1.11629e-09, No Iterations 2
DILUPBiCGStab:  Solving for k, Initial residual = 0.00683904, Final residual = 9.65162e-09, No Iterations 3

ExecutionTime = 3.78 s  ClockTime = 4 s

    Overall     = 0.001517, 0.01
Time = 279

diagonal:  Solving for rho, Initial residual = 0, Final residual = 0, No Iterations 0

Execution time for mesh.update() = 0 s

DILUPBiCGStab:  Solving for Ux, Initial residual = 0.00538685, Final residual = 4.82073e-09, No Iterations 3
DILUPBiCGStab:  Solving for Uy, Initial residual = 0.00803349, Final residual = 5.94323e-09, No Iterations 3
DILUPBiCGStab:  Solving for O2, Initial residual = 0.0030883, Final residual = 1.74676e-09, No Iterations 3
DILUPBiCGStab:  Solving for H2O, Initial residual = 0.00308848, Final residual = 1.74677e-09, No Iterations 3
DILUPBiCGStab:  Solving for CH4, Initial residual = 0, Final residual = 0, No Iterations 0
DILUPBiCGStab:  Solving for CO2, Initial residual = 0.00308848, Final residual = 1.74677e-09, No Iterations 3
DILUPBiCGStab:  Solving for h, Initial residual = 0.0036421, Final residual = 1.95829e-09, No Iterations 3
min/max(T) = 299.508, 1044.97
GAMGPCG:  Solving for p_rgh, Initial residual = 0.0214694, Final residual = 7.03552e-07, No Iterations 4
diagonal:  Solving for rho, Initial residual = 0, Final residual = 0, No Iterations 0
time step continuity errors : sum local = 3.83416e-08, global = -2.57854e-09, cumulative = -2.6155e-07
GAMGPCG:  Solving for p_rgh, Initial residual = 0.00276717, Final residual = 2.88037e-07, No Iterations 4
diagonal:  Solving for rho, Initial residual = 0, Final residual = 0, No Iterations 0
time step continuity errors : sum local = 1.55429e-08, global = 3.20946e-09, cumulative = -2.5834e-07
DILUPBiCGStab:  Solving for omega, Initial residual = 0.000119033, Final residual = 1.18949e-09, No Iterations 2
DILUPBiCGStab:  Solving for k, Initial residual = 0.00688421, Final residual = 7.28489e-09, No Iterations 3

ExecutionTime = 3.89 s  ClockTime = 4 s

    Overall     = 0.00149218, 0.01
Time = 280

diagonal:  Solving for rho, Initial residual = 0, Final residual = 0, No Iterations 0

Execution time for mesh.update() = 0 s

DILUPBiCGStab:  Solving for Ux, Initial residual = 0.00563171, Final residual = 9.58969e-09, No Iterations 3
DILUPBiCGStab:  Solving for Uy, Initial residual = 0.0083622, Final residual = 5.9194e-09, No Iterations 3
GAMGPCG:  Solving for G, Initial residual = 0.189233, Final residual = 4.79402e-05, No Iterations 6
DILUPBiCGStab:  Solving for O2, Initial residual = 0.00323308, Final residual = 1.67435e-09, No Iterations 3
DILUPBiCGStab:  Solving for H2O, Initial residual = 0.00323099, Final residual = 1.6734e-09, No Iterations 3
DILUPBiCGStab:  Solving for CH4, Initial residual = 0, Final residual = 0, No Iterations 0
DILUPBiCGStab:  Solving for CO2, Initial residual = 0.00323099, Final residual = 1.6734e-09, No Iterations 3
DILUPBiCGStab:  Solving for h, Initial residual = 0.00385293, Final residual = 1.79538e-09, No Iterations 3
min/max(T) = 299.767, 1044.97
GAMGPCG:  Solving for p_rgh, Initial residual = 0.02227, Final residual = 7.4331e-07, No Iterations 4
diagonal:  Solving for rho, Initial residual = 0, Final residual = 0, No Iterations 0
time step continuity errors : sum local = 4.04009e-08, global = -3.53141e-09, cumulative = -2.61872e-07
GAMGPCG:  Solving for p_rgh, Initial residual = 0.00270338, Final residual = 3.23581e-07, No Iterations 4
diagonal:  Solving for rho, Initial residual = 0, Final residual = 0, No Iterations 0
time step continuity errors : sum local = 1.71121e-08, global = 2.271e-09, cumulative = -2.59601e-07
DILUPBiCGStab:  Solving for omega, Initial residual = 0.000227573, Final residual = 1.31692e-09, No Iterations 2
bounding omega, min: -12.8091 max: 15702.1 average: 301.608
DILUPBiCGStab:  Solving for k, Initial residual = 0.00693647, Final residual = 7.12077e-09, No Iterations 3

ExecutionTime = 4.15 s  ClockTime = 4 s

    Overall     = 0.00178266, 0.01
Time = 281

diagonal:  Solving for rho, Initial residual = 0, Final residual = 0, No Iterations 0

Execution time for mesh.update() = 0 s

DILUPBiCGStab:  Solving for Ux, Initial residual = 0.00553794, Final residual = 3.27272e-09, No Iterations 3
DILUPBiCGStab:  Solving for Uy, Initial residual = 0.00827531, Final residual = 5.66337e-09, No Iterations 3
DILUPBiCGStab:  Solving for O2, Initial residual = 0.00320822, Final residual = 1.66872e-09, No Iterations 3
DILUPBiCGStab:  Solving for H2O, Initial residual = 0.00320824, Final residual = 1.66873e-09, No Iterations 3
DILUPBiCGStab:  Solving for CH4, Initial residual = 0, Final residual = 0, No Iterations 0
DILUPBiCGStab:  Solving for CO2, Initial residual = 0.00320824, Final residual = 1.66873e-09, No Iterations 3
DILUPBiCGStab:  Solving for h, Initial residual = 0.00381934, Final residual = 2.19487e-09, No Iterations 3
min/max(T) = 299.765, 1044.97
GAMGPCG:  Solving for p_rgh, Initial residual = 0.0229652, Final residual = 7.20752e-07, No Iterations 4
diagonal:  Solving for rho, Initial residual = 0, Final residual = 0, No Iterations 0
time step continuity errors : sum local = 3.88706e-08, global = -7.61464e-10, cumulative = -2.60362e-07
GAMGPCG:  Solving for p_rgh, Initial residual = 0.00328238, Final residual = 1.68926e-07, No Iterations 4
diagonal:  Solving for rho, Initial residual = 0, Final residual = 0, No Iterations 0
time step continuity errors : sum local = 8.95742e-09, global = 1.46409e-10, cumulative = -2.60216e-07
DILUPBiCGStab:  Solving for omega, Initial residual = 0.000158193, Final residual = 1.60666e-09, No Iterations 2
DILUPBiCGStab:  Solving for k, Initial residual = 0.00696903, Final residual = 6.76645e-09, No Iterations 3

ExecutionTime = 4.26 s  ClockTime = 4 s

    Overall     = 0.00135132, 0.01
Time = 282

diagonal:  Solving for rho, Initial residual = 0, Final residual = 0, No Iterations 0

Execution time for mesh.update() = 0 s

DILUPBiCGStab:  Solving for Ux, Initial residual = 0.00544682, Final residual = 3.57193e-09, No Iterations 3
DILUPBiCGStab:  Solving for Uy, Initial residual = 0.00807782, Final residual = 4.6607e-09, No Iterations 3
DILUPBiCGStab:  Solving for O2, Initial residual = 0.00314605, Final residual = 1.8306e-09, No Iterations 3
DILUPBiCGStab:  Solving for H2O, Initial residual = 0.00314611, Final residual = 1.83059e-09, No Iterations 3
DILUPBiCGStab:  Solving for CH4, Initial residual = 0, Final residual = 0, No Iterations 0
DILUPBiCGStab:  Solving for CO2, Initial residual = 0.00314611, Final residual = 1.83059e-09, No Iterations 3
DILUPBiCGStab:  Solving for h, Initial residual = 0.0037229, Final residual = 1.8089e-09, No Iterations 3
min/max(T) = 299.762, 1044.97
GAMGPCG:  Solving for p_rgh, Initial residual = 0.0223148, Final residual = 7.46463e-07, No Iterations 4
diagonal:  Solving for rho, Initial residual = 0, Final residual = 0, No Iterations 0
time step continuity errors : sum local = 4.11027e-08, global = -2.58865e-09, cumulative = -2.62804e-07
GAMGPCG:  Solving for p_rgh, Initial residual = 0.00278463, Final residual = 2.50957e-07, No Iterations 4
diagonal:  Solving for rho, Initial residual = 0, Final residual = 0, No Iterations 0
time step continuity errors : sum local = 1.33162e-08, global = 8.72077e-10, cumulative = -2.61932e-07
DILUPBiCGStab:  Solving for omega, Initial residual = 0.000127301, Final residual = 1.51452e-09, No Iterations 2
DILUPBiCGStab:  Solving for k, Initial residual = 0.00700102, Final residual = 7.10972e-10, No Iterations 3

ExecutionTime = 4.38 s  ClockTime = 4 s

    Overall     = 0.00143676, 0.01
Time = 283

diagonal:  Solving for rho, Initial residual = 0, Final residual = 0, No Iterations 0

Execution time for mesh.update() = 0 s

DILUPBiCGStab:  Solving for Ux, Initial residual = 0.00541856, Final residual = 3.14059e-09, No Iterations 3
DILUPBiCGStab:  Solving for Uy, Initial residual = 0.00795627, Final residual = 4.62388e-09, No Iterations 3
DILUPBiCGStab:  Solving for O2, Initial residual = 0.00313997, Final residual = 1.79758e-09, No Iterations 3
DILUPBiCGStab:  Solving for H2O, Initial residual = 0.00314002, Final residual = 1.79758e-09, No Iterations 3
DILUPBiCGStab:  Solving for CH4, Initial residual = 0, Final residual = 0, No Iterations 0
DILUPBiCGStab:  Solving for CO2, Initial residual = 0.00314002, Final residual = 1.79758e-09, No Iterations 3
DILUPBiCGStab:  Solving for h, Initial residual = 0.00371912, Final residual = 1.84286e-09, No Iterations 3
min/max(T) = 299.761, 1044.97
GAMGPCG:  Solving for p_rgh, Initial residual = 0.0217229, Final residual = 5.82535e-07, No Iterations 4
diagonal:  Solving for rho, Initial residual = 0, Final residual = 0, No Iterations 0
time step continuity errors : sum local = 3.19445e-08, global = 1.5474e-10, cumulative = -2.61778e-07
GAMGPCG:  Solving for p_rgh, Initial residual = 0.00280723, Final residual = 2.52403e-07, No Iterations 4
diagonal:  Solving for rho, Initial residual = 0, Final residual = 0, No Iterations 0
time step continuity errors : sum local = 1.34226e-08, global = 1.23565e-09, cumulative = -2.60542e-07
DILUPBiCGStab:  Solving for omega, Initial residual = 0.000122458, Final residual = 1.23684e-09, No Iterations 2
DILUPBiCGStab:  Solving for k, Initial residual = 0.00704202, Final residual = 7.56124e-10, No Iterations 3

ExecutionTime = 4.49 s  ClockTime = 4 s

    Overall     = 0.00142311, 0.01
Time = 284

diagonal:  Solving for rho, Initial residual = 0, Final residual = 0, No Iterations 0

Execution time for mesh.update() = 0 s

DILUPBiCGStab:  Solving for Ux, Initial residual = 0.00538957, Final residual = 3.18106e-09, No Iterations 3
DILUPBiCGStab:  Solving for Uy, Initial residual = 0.00784736, Final residual = 4.54087e-09, No Iterations 3
DILUPBiCGStab:  Solving for O2, Initial residual = 0.00313569, Final residual = 1.76299e-09, No Iterations 3
DILUPBiCGStab:  Solving for H2O, Initial residual = 0.0031357, Final residual = 1.76299e-09, No Iterations 3
DILUPBiCGStab:  Solving for CH4, Initial residual = 0, Final residual = 0, No Iterations 0
DILUPBiCGStab:  Solving for CO2, Initial residual = 0.0031357, Final residual = 1.76299e-09, No Iterations 3
DILUPBiCGStab:  Solving for h, Initial residual = 0.00371566, Final residual = 1.79839e-09, No Iterations 3
min/max(T) = 299.731, 1044.97
GAMGPCG:  Solving for p_rgh, Initial residual = 0.0203957, Final residual = 7.14671e-07, No Iterations 4
diagonal:  Solving for rho, Initial residual = 0, Final residual = 0, No Iterations 0
time step continuity errors : sum local = 3.87557e-08, global = -1.07264e-09, cumulative = -2.61615e-07
GAMGPCG:  Solving for p_rgh, Initial residual = 0.00266753, Final residual = 2.26593e-07, No Iterations 4
diagonal:  Solving for rho, Initial residual = 0, Final residual = 0, No Iterations 0
time step continuity errors : sum local = 1.19972e-08, global = 8.2147e-10, cumulative = -2.60793e-07
DILUPBiCGStab:  Solving for omega, Initial residual = 0.000120096, Final residual = 1.33333e-09, No Iterations 2
DILUPBiCGStab:  Solving for k, Initial residual = 0.00708348, Final residual = 1.31427e-09, No Iterations 3

ExecutionTime = 4.61 s  ClockTime = 5 s

    Overall     = 0.00141808, 0.01
Time = 285

diagonal:  Solving for rho, Initial residual = 0, Final residual = 0, No Iterations 0

Execution time for mesh.update() = 0 s

DILUPBiCGStab:  Solving for Ux, Initial residual = 0.0053847, Final residual = 3.01893e-09, No Iterations 3
DILUPBiCGStab:  Solving for Uy, Initial residual = 0.0078165, Final residual = 4.2659e-09, No Iterations 3
DILUPBiCGStab:  Solving for O2, Initial residual = 0.00314838, Final residual = 1.57078e-09, No Iterations 3
DILUPBiCGStab:  Solving for H2O, Initial residual = 0.00314863, Final residual = 1.57078e-09, No Iterations 3
DILUPBiCGStab:  Solving for CH4, Initial residual = 0, Final residual = 0, No Iterations 0
DILUPBiCGStab:  Solving for CO2, Initial residual = 0.00314863, Final residual = 1.57078e-09, No Iterations 3
DILUPBiCGStab:  Solving for h, Initial residual = 0.00373121, Final residual = 1.558e-09, No Iterations 3
min/max(T) = 299.526, 1044.97
GAMGPCG:  Solving for p_rgh, Initial residual = 0.0211651, Final residual = 6.59956e-07, No Iterations 4
diagonal:  Solving for rho, Initial residual = 0, Final residual = 0, No Iterations 0
time step continuity errors : sum local = 3.60693e-08, global = 1.65445e-09, cumulative = -2.59139e-07
GAMGPCG:  Solving for p_rgh, Initial residual = 0.002575, Final residual = 2.36377e-07, No Iterations 4
diagonal:  Solving for rho, Initial residual = 0, Final residual = 0, No Iterations 0
time step continuity errors : sum local = 1.23687e-08, global = 1.03147e-09, cumulative = -2.58107e-07
DILUPBiCGStab:  Solving for omega, Initial residual = 0.000120037, Final residual = 1.21268e-09, No Iterations 2
DILUPBiCGStab:  Solving for k, Initial residual = 0.00711659, Final residual = 8.57616e-10, No Iterations 3

ExecutionTime = 4.72 s  ClockTime = 5 s

    Overall     = 0.00141708, 0.01
Time = 286

diagonal:  Solving for rho, Initial residual = 0, Final residual = 0, No Iterations 0

Execution time for mesh.update() = 0 s

DILUPBiCGStab:  Solving for Ux, Initial residual = 0.00537482, Final residual = 3.00385e-09, No Iterations 3
DILUPBiCGStab:  Solving for Uy, Initial residual = 0.00775587, Final residual = 4.19396e-09, No Iterations 3
DILUPBiCGStab:  Solving for O2, Initial residual = 0.0031638, Final residual = 1.68792e-09, No Iterations 3
DILUPBiCGStab:  Solving for H2O, Initial residual = 0.00316427, Final residual = 1.6879e-09, No Iterations 3
DILUPBiCGStab:  Solving for CH4, Initial residual = 0, Final residual = 0, No Iterations 0
DILUPBiCGStab:  Solving for CO2, Initial residual = 0.00316427, Final residual = 1.6879e-09, No Iterations 3
DILUPBiCGStab:  Solving for h, Initial residual = 0.00375357, Final residual = 1.7477e-09, No Iterations 3
min/max(T) = 299.439, 1044.97
GAMGPCG:  Solving for p_rgh, Initial residual = 0.0209066, Final residual = 7.30341e-07, No Iterations 4
diagonal:  Solving for rho, Initial residual = 0, Final residual = 0, No Iterations 0
time step continuity errors : sum local = 3.95765e-08, global = 1.32513e-09, cumulative = -2.56782e-07
GAMGPCG:  Solving for p_rgh, Initial residual = 0.00265422, Final residual = 2.3783e-07, No Iterations 4
diagonal:  Solving for rho, Initial residual = 0, Final residual = 0, No Iterations 0
time step continuity errors : sum local = 1.25402e-08, global = 7.5776e-10, cumulative = -2.56024e-07
DILUPBiCGStab:  Solving for omega, Initial residual = 0.000118594, Final residual = 1.27778e-09, No Iterations 2
DILUPBiCGStab:  Solving for k, Initial residual = 0.00715553, Final residual = 9.42149e-10, No Iterations 3

ExecutionTime = 4.84 s  ClockTime = 5 s

    Overall     = 0.00141543, 0.01
Time = 287

diagonal:  Solving for rho, Initial residual = 0, Final residual = 0, No Iterations 0

Execution time for mesh.update() = 0 s

DILUPBiCGStab:  Solving for Ux, Initial residual = 0.00538144, Final residual = 3.01496e-09, No Iterations 3
DILUPBiCGStab:  Solving for Uy, Initial residual = 0.00777254, Final residual = 4.04802e-09, No Iterations 3
DILUPBiCGStab:  Solving for O2, Initial residual = 0.00316838, Final residual = 1.75199e-09, No Iterations 3
DILUPBiCGStab:  Solving for H2O, Initial residual = 0.00316857, Final residual = 1.75201e-09, No Iterations 3
DILUPBiCGStab:  Solving for CH4, Initial residual = 0, Final residual = 0, No Iterations 0
DILUPBiCGStab:  Solving for CO2, Initial residual = 0.00316857, Final residual = 1.75201e-09, No Iterations 3
DILUPBiCGStab:  Solving for h, Initial residual = 0.00376627, Final residual = 1.81242e-09, No Iterations 3
min/max(T) = 299.388, 1044.97
GAMGPCG:  Solving for p_rgh, Initial residual = 0.021842, Final residual = 8.35762e-07, No Iterations 4
diagonal:  Solving for rho, Initial residual = 0, Final residual = 0, No Iterations 0
time step continuity errors : sum local = 4.50847e-08, global = 2.23797e-09, cumulative = -2.53786e-07
GAMGPCG:  Solving for p_rgh, Initial residual = 0.00259566, Final residual = 2.61051e-07, No Iterations 4
diagonal:  Solving for rho, Initial residual = 0, Final residual = 0, No Iterations 0
time step continuity errors : sum local = 1.36268e-08, global = 1.44931e-09, cumulative = -2.52337e-07
DILUPBiCGStab:  Solving for omega, Initial residual = 0.000118179, Final residual = 1.24557e-09, No Iterations 2
DILUPBiCGStab:  Solving for k, Initial residual = 0.00718815, Final residual = 4.12555e-09, No Iterations 3

ExecutionTime = 4.95 s  ClockTime = 5 s

    Overall     = 0.00141515, 0.01
Time = 288

diagonal:  Solving for rho, Initial residual = 0, Final residual = 0, No Iterations 0

Execution time for mesh.update() = 0 s

DILUPBiCGStab:  Solving for Ux, Initial residual = 0.00540619, Final residual = 2.82963e-09, No Iterations 3
DILUPBiCGStab:  Solving for Uy, Initial residual = 0.0077215, Final residual = 4.1864e-09, No Iterations 3
DILUPBiCGStab:  Solving for O2, Initial residual = 0.00317375, Final residual = 2.03783e-09, No Iterations 3
DILUPBiCGStab:  Solving for H2O, Initial residual = 0.00317428, Final residual = 2.03784e-09, No Iterations 3
DILUPBiCGStab:  Solving for CH4, Initial residual = 0, Final residual = 0, No Iterations 0
DILUPBiCGStab:  Solving for CO2, Initial residual = 0.00317428, Final residual = 2.03784e-09, No Iterations 3
DILUPBiCGStab:  Solving for h, Initial residual = 0.00377891, Final residual = 2.02415e-09, No Iterations 3
min/max(T) = 299.378, 1044.97
GAMGPCG:  Solving for p_rgh, Initial residual = 0.0208965, Final residual = 1.70947e-07, No Iterations 5
diagonal:  Solving for rho, Initial residual = 0, Final residual = 0, No Iterations 0
time step continuity errors : sum local = 9.4408e-09, global = -2.23327e-09, cumulative = -2.5457e-07
GAMGPCG:  Solving for p_rgh, Initial residual = 0.00266502, Final residual = 2.95143e-07, No Iterations 4
diagonal:  Solving for rho, Initial residual = 0, Final residual = 0, No Iterations 0
time step continuity errors : sum local = 1.52985e-08, global = 1.13566e-09, cumulative = -2.53435e-07
DILUPBiCGStab:  Solving for omega, Initial residual = 0.000118133, Final residual = 1.27355e-09, No Iterations 2
DILUPBiCGStab:  Solving for k, Initial residual = 0.00722787, Final residual = 3.58678e-09, No Iterations 3

ExecutionTime = 5.08 s  ClockTime = 5 s

    Overall     = 0.00141482, 0.01
Time = 289

diagonal:  Solving for rho, Initial residual = 0, Final residual = 0, No Iterations 0

Execution time for mesh.update() = 0 s

DILUPBiCGStab:  Solving for Ux, Initial residual = 0.0053942, Final residual = 2.88849e-09, No Iterations 3
DILUPBiCGStab:  Solving for Uy, Initial residual = 0.00770362, Final residual = 3.72858e-09, No Iterations 3
DILUPBiCGStab:  Solving for O2, Initial residual = 0.00317982, Final residual = 2.00666e-09, No Iterations 3
DILUPBiCGStab:  Solving for H2O, Initial residual = 0.00317999, Final residual = 2.00672e-09, No Iterations 3
DILUPBiCGStab:  Solving for CH4, Initial residual = 0, Final residual = 0, No Iterations 0
DILUPBiCGStab:  Solving for CO2, Initial residual = 0.00317999, Final residual = 2.00672e-09, No Iterations 3
DILUPBiCGStab:  Solving for h, Initial residual = 0.00379338, Final residual = 2.03264e-09, No Iterations 3
min/max(T) = 299.355, 1044.97
GAMGPCG:  Solving for p_rgh, Initial residual = 0.0211485, Final residual = 1.47883e-07, No Iterations 5
diagonal:  Solving for rho, Initial residual = 0, Final residual = 0, No Iterations 0
time step continuity errors : sum local = 8.15496e-09, global = -2.02563e-09, cumulative = -2.5546e-07
GAMGPCG:  Solving for p_rgh, Initial residual = 0.0025515, Final residual = 3.15679e-07, No Iterations 4
diagonal:  Solving for rho, Initial residual = 0, Final residual = 0, No Iterations 0
time step continuity errors : sum local = 1.64005e-08, global = 1.54075e-09, cumulative = -2.5392e-07
DILUPBiCGStab:  Solving for omega, Initial residual = 0.000118434, Final residual = 1.28214e-09, No Iterations 2
DILUPBiCGStab:  Solving for k, Initial residual = 0.00724371, Final residual = 2.12162e-09, No Iterations 3

ExecutionTime = 5.2 s  ClockTime = 5 s

    Overall     = 0.00141144, 0.01
Time = 290

diagonal:  Solving for rho, Initial residual = 0, Final residual = 0, No Iterations 0

Execution time for mesh.update() = 0 s

DILUPBiCGStab:  Solving for Ux, Initial residual = 0.00539617, Final residual = 2.59741e-09, No Iterations 3
DILUPBiCGStab:  Solving for Uy, Initial residual = 0.007658, Final residual = 3.75817e-09, No Iterations 3
GAMGPCG:  Solving for G, Initial residual = 0.205949, Final residual = 6.30506e-05, No Iterations 5
DILUPBiCGStab:  Solving for O2, Initial residual = 0.00318502, Final residual = 2.19758e-09, No Iterations 3
DILUPBiCGStab:  Solving for H2O, Initial residual = 0.00318556, Final residual = 2.19767e-09, No Iterations 3
DILUPBiCGStab:  Solving for CH4, Initial residual = 0, Final residual = 0, No Iterations 0
DILUPBiCGStab:  Solving for CO2, Initial residual = 0.00318556, Final residual = 2.19767e-09, No Iterations 3
DILUPBiCGStab:  Solving for h, Initial residual = 0.00380073, Final residual = 2.18314e-09, No Iterations 3
min/max(T) = 299.363, 1044.97
GAMGPCG:  Solving for p_rgh, Initial residual = 0.0206093, Final residual = 1.7942e-07, No Iterations 5
diagonal:  Solving for rho, Initial residual = 0, Final residual = 0, No Iterations 0
time step continuity errors : sum local = 9.79905e-09, global = -1.70953e-09, cumulative = -2.55629e-07
GAMGPCG:  Solving for p_rgh, Initial residual = 0.00259458, Final residual = 3.26659e-07, No Iterations 4
diagonal:  Solving for rho, Initial residual = 0, Final residual = 0, No Iterations 0
time step continuity errors : sum local = 1.70267e-08, global = 8.63915e-10, cumulative = -2.54765e-07
DILUPBiCGStab:  Solving for omega, Initial residual = 0.000118274, Final residual = 1.42781e-09, No Iterations 2
DILUPBiCGStab:  Solving for k, Initial residual = 0.00727527, Final residual = 2.12366e-09, No Iterations 3

ExecutionTime = 5.45 s  ClockTime = 5 s

    Overall     = 0.00141044, 0.01
Time = 291

diagonal:  Solving for rho, Initial residual = 0, Final residual = 0, No Iterations 0

Execution time for mesh.update() = 0 s

DILUPBiCGStab:  Solving for Ux, Initial residual = 0.00539606, Final residual = 2.65221e-09, No Iterations 3
DILUPBiCGStab:  Solving for Uy, Initial residual = 0.00764421, Final residual = 3.50151e-09, No Iterations 3
DILUPBiCGStab:  Solving for O2, Initial residual = 0.0031986, Final residual = 2.16923e-09, No Iterations 3
DILUPBiCGStab:  Solving for H2O, Initial residual = 0.00319879, Final residual = 2.16938e-09, No Iterations 3
DILUPBiCGStab:  Solving for CH4, Initial residual = 0, Final residual = 0, No Iterations 0
DILUPBiCGStab:  Solving for CO2, Initial residual = 0.00319879, Final residual = 2.16938e-09, No Iterations 3
DILUPBiCGStab:  Solving for h, Initial residual = 0.00381998, Final residual = 2.03534e-09, No Iterations 3
min/max(T) = 299.353, 1044.97
GAMGPCG:  Solving for p_rgh, Initial residual = 0.0212564, Final residual = 8.1361e-07, No Iterations 4
diagonal:  Solving for rho, Initial residual = 0, Final residual = 0, No Iterations 0
time step continuity errors : sum local = 4.37541e-08, global = 4.12933e-09, cumulative = -2.50636e-07
GAMGPCG:  Solving for p_rgh, Initial residual = 0.00258404, Final residual = 2.63253e-07, No Iterations 4
diagonal:  Solving for rho, Initial residual = 0, Final residual = 0, No Iterations 0
time step continuity errors : sum local = 1.38317e-08, global = 5.54737e-10, cumulative = -2.50081e-07
DILUPBiCGStab:  Solving for omega, Initial residual = 0.000118741, Final residual = 1.49985e-09, No Iterations 2
DILUPBiCGStab:  Solving for k, Initial residual = 0.007293, Final residual = 2.39157e-09, No Iterations 3

ExecutionTime = 5.57 s  ClockTime = 6 s

    Overall     = 0.00140724, 0.01
Time = 292

diagonal:  Solving for rho, Initial residual = 0, Final residual = 0, No Iterations 0

Execution time for mesh.update() = 0 s

DILUPBiCGStab:  Solving for Ux, Initial residual = 0.00541173, Final residual = 2.55389e-09, No Iterations 3
DILUPBiCGStab:  Solving for Uy, Initial residual = 0.00760816, Final residual = 3.58224e-09, No Iterations 3
DILUPBiCGStab:  Solving for O2, Initial residual = 0.00319965, Final residual = 2.14592e-09, No Iterations 3
DILUPBiCGStab:  Solving for H2O, Initial residual = 0.00320008, Final residual = 2.14601e-09, No Iterations 3
DILUPBiCGStab:  Solving for CH4, Initial residual = 0, Final residual = 0, No Iterations 0
DILUPBiCGStab:  Solving for CO2, Initial residual = 0.00320008, Final residual = 2.14601e-09, No Iterations 3
DILUPBiCGStab:  Solving for h, Initial residual = 0.00382423, Final residual = 2.06192e-09, No Iterations 3
min/max(T) = 299.373, 1044.97
GAMGPCG:  Solving for p_rgh, Initial residual = 0.0208997, Final residual = 1.51549e-07, No Iterations 5
diagonal:  Solving for rho, Initial residual = 0, Final residual = 0, No Iterations 0
time step continuity errors : sum local = 8.17018e-09, global = -1.38841e-09, cumulative = -2.5147e-07
GAMGPCG:  Solving for p_rgh, Initial residual = 0.00266811, Final residual = 2.95294e-07, No Iterations 4
diagonal:  Solving for rho, Initial residual = 0, Final residual = 0, No Iterations 0
time step continuity errors : sum local = 1.55576e-08, global = 7.43277e-10, cumulative = -2.50726e-07
[...]

Execution time for mesh.update() = 0 s

DILUPBiCGStab:  Solving for Ux, Initial residual = 0.00506997, Final residual = 8.93414e-10, No Iterations 3
DILUPBiCGStab:  Solving for Uy, Initial residual = 0.00451174, Final residual = 5.97898e-09, No Iterations 3
GAMGPCG:  Solving for G, Initial residual = 0.187449, Final residual = 4.40042e-05, No Iterations 6
DILUPBiCGStab:  Solving for O2, Initial residual = 0.00164602, Final residual = 2.9725e-09, No Iterations 3
DILUPBiCGStab:  Solving for H2O, Initial residual = 0.00164602, Final residual = 2.9725e-09, No Iterations 3
DILUPBiCGStab:  Solving for CH4, Initial residual = 0, Final residual = 0, No Iterations 0
DILUPBiCGStab:  Solving for CO2, Initial residual = 0.00164602, Final residual = 2.9725e-09, No Iterations 3
DILUPBiCGStab:  Solving for h, Initial residual = 0.00181379, Final residual = 3.06992e-09, No Iterations 3
min/max(T) = 300, 1044.97
GAMGPCG:  Solving for p_rgh, Initial residual = 0.0160449, Final residual = 2.2877e-07, No Iterations 5
diagonal:  Solving for rho, Initial residual = 0, Final residual = 0, No Iterations 0
time step continuity errors : sum local = 9.35576e-09, global = -1.34046e-09, cumulative = 2.5923e-06
GAMGPCG:  Solving for p_rgh, Initial residual = 0.00262195, Final residual = 3.41841e-07, No Iterations 4
diagonal:  Solving for rho, Initial residual = 0, Final residual = 0, No Iterations 0
time step continuity errors : sum local = 1.37316e-08, global = 2.1934e-09, cumulative = 2.59449e-06
DILUPBiCGStab:  Solving for omega, Initial residual = 7.66587e-05, Final residual = 1.66998e-09, No Iterations 2
DILUPBiCGStab:  Solving for k, Initial residual = 0.00347171, Final residual = 2.87505e-09, No Iterations 3

ExecutionTime = 292.9 s  ClockTime = 293 s

    Overall     = 0.00126634, 0.01
Time = 2491

diagonal:  Solving for rho, Initial residual = 0, Final residual = 0, No Iterations 0

Execution time for mesh.update() = 0 s

DILUPBiCGStab:  Solving for Ux, Initial residual = 0.00505961, Final residual = 9.3327e-10, No Iterations 3
DILUPBiCGStab:  Solving for Uy, Initial residual = 0.00450801, Final residual = 6.53659e-09, No Iterations 3
DILUPBiCGStab:  Solving for O2, Initial residual = 0.00164447, Final residual = 3.12558e-09, No Iterations 3
DILUPBiCGStab:  Solving for H2O, Initial residual = 0.00164447, Final residual = 3.12558e-09, No Iterations 3
DILUPBiCGStab:  Solving for CH4, Initial residual = 0, Final residual = 0, No Iterations 0
DILUPBiCGStab:  Solving for CO2, Initial residual = 0.00164447, Final residual = 3.12558e-09, No Iterations 3
DILUPBiCGStab:  Solving for h, Initial residual = 0.0018174, Final residual = 3.27415e-09, No Iterations 3
min/max(T) = 300, 1044.97
GAMGPCG:  Solving for p_rgh, Initial residual = 0.0161778, Final residual = 2.39708e-07, No Iterations 5
diagonal:  Solving for rho, Initial residual = 0, Final residual = 0, No Iterations 0
time step continuity errors : sum local = 9.88494e-09, global = -1.7379e-09, cumulative = 2.59275e-06
GAMGPCG:  Solving for p_rgh, Initial residual = 0.00256708, Final residual = 3.16604e-07, No Iterations 4
diagonal:  Solving for rho, Initial residual = 0, Final residual = 0, No Iterations 0
time step continuity errors : sum local = 1.27513e-08, global = 1.80138e-09, cumulative = 2.59455e-06
DILUPBiCGStab:  Solving for omega, Initial residual = 7.61157e-05, Final residual = 1.69418e-09, No Iterations 2
DILUPBiCGStab:  Solving for k, Initial residual = 0.00345713, Final residual = 4.93117e-09, No Iterations 3

ExecutionTime = 293.02 s  ClockTime = 293 s

    Overall     = 0.00126397, 0.01
Time = 2492

diagonal:  Solving for rho, Initial residual = 0, Final residual = 0, No Iterations 0

Execution time for mesh.update() = 0 s

DILUPBiCGStab:  Solving for Ux, Initial residual = 0.00507392, Final residual = 9.29659e-10, No Iterations 3
DILUPBiCGStab:  Solving for Uy, Initial residual = 0.00450444, Final residual = 7.16738e-09, No Iterations 3
DILUPBiCGStab:  Solving for O2, Initial residual = 0.00163388, Final residual = 3.37226e-09, No Iterations 3
DILUPBiCGStab:  Solving for H2O, Initial residual = 0.00163388, Final residual = 3.37226e-09, No Iterations 3
DILUPBiCGStab:  Solving for CH4, Initial residual = 0, Final residual = 0, No Iterations 0
DILUPBiCGStab:  Solving for CO2, Initial residual = 0.00163388, Final residual = 3.37226e-09, No Iterations 3
DILUPBiCGStab:  Solving for h, Initial residual = 0.00180261, Final residual = 3.37556e-09, No Iterations 3
min/max(T) = 300, 1044.97
GAMGPCG:  Solving for p_rgh, Initial residual = 0.0157171, Final residual = 2.33714e-07, No Iterations 5
diagonal:  Solving for rho, Initial residual = 0, Final residual = 0, No Iterations 0
time step continuity errors : sum local = 9.65124e-09, global = -1.3858e-09, cumulative = 2.59317e-06
GAMGPCG:  Solving for p_rgh, Initial residual = 0.00258222, Final residual = 3.14787e-07, No Iterations 4
diagonal:  Solving for rho, Initial residual = 0, Final residual = 0, No Iterations 0
time step continuity errors : sum local = 1.27543e-08, global = 1.42737e-09, cumulative = 2.5946e-06
DILUPBiCGStab:  Solving for omega, Initial residual = 7.50924e-05, Final residual = 1.67122e-09, No Iterations 2
DILUPBiCGStab:  Solving for k, Initial residual = 0.00344487, Final residual = 1.19862e-09, No Iterations 3

ExecutionTime = 293.14 s  ClockTime = 293 s

    Overall     = 0.00126711, 0.01
Time = 2493

diagonal:  Solving for rho, Initial residual = 0, Final residual = 0, No Iterations 0

Execution time for mesh.update() = 0 s

DILUPBiCGStab:  Solving for Ux, Initial residual = 0.0050284, Final residual = 9.68531e-10, No Iterations 3
DILUPBiCGStab:  Solving for Uy, Initial residual = 0.00449096, Final residual = 7.46916e-09, No Iterations 3
DILUPBiCGStab:  Solving for O2, Initial residual = 0.00163014, Final residual = 3.91231e-09, No Iterations 3
DILUPBiCGStab:  Solving for H2O, Initial residual = 0.00163014, Final residual = 3.91231e-09, No Iterations 3
DILUPBiCGStab:  Solving for CH4, Initial residual = 0, Final residual = 0, No Iterations 0
DILUPBiCGStab:  Solving for CO2, Initial residual = 0.00163014, Final residual = 3.91231e-09, No Iterations 3
DILUPBiCGStab:  Solving for h, Initial residual = 0.00180165, Final residual = 3.36465e-09, No Iterations 3
min/max(T) = 300, 1044.97
GAMGPCG:  Solving for p_rgh, Initial residual = 0.0157859, Final residual = 2.27699e-07, No Iterations 5
diagonal:  Solving for rho, Initial residual = 0, Final residual = 0, No Iterations 0
time step continuity errors : sum local = 9.39776e-09, global = -1.2457e-09, cumulative = 2.59335e-06
GAMGPCG:  Solving for p_rgh, Initial residual = 0.00255718, Final residual = 3.04458e-07, No Iterations 4
diagonal:  Solving for rho, Initial residual = 0, Final residual = 0, No Iterations 0
time step continuity errors : sum local = 1.24002e-08, global = 1.0032e-09, cumulative = 2.59435e-06
DILUPBiCGStab:  Solving for omega, Initial residual = 7.47383e-05, Final residual = 1.6164e-09, No Iterations 2
DILUPBiCGStab:  Solving for k, Initial residual = 0.00344146, Final residual = 1.09525e-09, No Iterations 3

ExecutionTime = 293.25 s  ClockTime = 293 s

    Overall     = 0.00126412, 0.01
Time = 2494

diagonal:  Solving for rho, Initial residual = 0, Final residual = 0, No Iterations 0

Execution time for mesh.update() = 0.01 s

DILUPBiCGStab:  Solving for Ux, Initial residual = 0.0050173, Final residual = 1.02681e-09, No Iterations 3
DILUPBiCGStab:  Solving for Uy, Initial residual = 0.00448475, Final residual = 7.20454e-09, No Iterations 3
DILUPBiCGStab:  Solving for O2, Initial residual = 0.00162379, Final residual = 3.06899e-09, No Iterations 3
DILUPBiCGStab:  Solving for H2O, Initial residual = 0.00162379, Final residual = 3.06899e-09, No Iterations 3
DILUPBiCGStab:  Solving for CH4, Initial residual = 0, Final residual = 0, No Iterations 0
DILUPBiCGStab:  Solving for CO2, Initial residual = 0.00162379, Final residual = 3.06899e-09, No Iterations 3
DILUPBiCGStab:  Solving for h, Initial residual = 0.00179131, Final residual = 3.10182e-09, No Iterations 3
min/max(T) = 300, 1044.97
GAMGPCG:  Solving for p_rgh, Initial residual = 0.0158829, Final residual = 2.16214e-07, No Iterations 5
diagonal:  Solving for rho, Initial residual = 0, Final residual = 0, No Iterations 0
time step continuity errors : sum local = 8.97242e-09, global = -9.6448e-10, cumulative = 2.59339e-06
GAMGPCG:  Solving for p_rgh, Initial residual = 0.00254257, Final residual = 3.0706e-07, No Iterations 4
diagonal:  Solving for rho, Initial residual = 0, Final residual = 0, No Iterations 0
time step continuity errors : sum local = 1.25199e-08, global = 1.25837e-09, cumulative = 2.59465e-06
DILUPBiCGStab:  Solving for omega, Initial residual = 7.49523e-05, Final residual = 1.58863e-09, No Iterations 2
DILUPBiCGStab:  Solving for k, Initial residual = 0.00343731, Final residual = 2.58477e-09, No Iterations 3

ExecutionTime = 293.37 s  ClockTime = 293 s

    Overall     = 0.00126708, 0.01
Time = 2495

diagonal:  Solving for rho, Initial residual = 0, Final residual = 0, No Iterations 0

Execution time for mesh.update() = 0 s

DILUPBiCGStab:  Solving for Ux, Initial residual = 0.00499824, Final residual = 9.06956e-09, No Iterations 3
DILUPBiCGStab:  Solving for Uy, Initial residual = 0.00447901, Final residual = 7.69985e-09, No Iterations 3
DILUPBiCGStab:  Solving for O2, Initial residual = 0.00162301, Final residual = 2.97402e-09, No Iterations 3
DILUPBiCGStab:  Solving for H2O, Initial residual = 0.00162301, Final residual = 2.97402e-09, No Iterations 3
DILUPBiCGStab:  Solving for CH4, Initial residual = 0, Final residual = 0, No Iterations 0
DILUPBiCGStab:  Solving for CO2, Initial residual = 0.00162301, Final residual = 2.97402e-09, No Iterations 3
DILUPBiCGStab:  Solving for h, Initial residual = 0.00179184, Final residual = 2.85153e-09, No Iterations 3
min/max(T) = 300, 1044.97
GAMGPCG:  Solving for p_rgh, Initial residual = 0.0158561, Final residual = 1.82125e-07, No Iterations 5
diagonal:  Solving for rho, Initial residual = 0, Final residual = 0, No Iterations 0
time step continuity errors : sum local = 7.53496e-09, global = -7.90932e-10, cumulative = 2.59386e-06
GAMGPCG:  Solving for p_rgh, Initial residual = 0.00252373, Final residual = 3.08311e-07, No Iterations 4
diagonal:  Solving for rho, Initial residual = 0, Final residual = 0, No Iterations 0
time step continuity errors : sum local = 1.24419e-08, global = 1.57191e-09, cumulative = 2.59543e-06
DILUPBiCGStab:  Solving for omega, Initial residual = 7.51951e-05, Final residual = 1.60634e-09, No Iterations 2
DILUPBiCGStab:  Solving for k, Initial residual = 0.00344538, Final residual = 2.50273e-09, No Iterations 3

ExecutionTime = 293.49 s  ClockTime = 294 s

    Overall     = 0.00126362, 0.01
Time = 2496

diagonal:  Solving for rho, Initial residual = 0, Final residual = 0, No Iterations 0

Execution time for mesh.update() = 0 s

DILUPBiCGStab:  Solving for Ux, Initial residual = 0.0049851, Final residual = 7.24146e-09, No Iterations 3
DILUPBiCGStab:  Solving for Uy, Initial residual = 0.004474, Final residual = 7.62587e-09, No Iterations 3
DILUPBiCGStab:  Solving for O2, Initial residual = 0.00162233, Final residual = 3.4681e-09, No Iterations 3
DILUPBiCGStab:  Solving for H2O, Initial residual = 0.00162233, Final residual = 3.4681e-09, No Iterations 3
DILUPBiCGStab:  Solving for CH4, Initial residual = 0, Final residual = 0, No Iterations 0
DILUPBiCGStab:  Solving for CO2, Initial residual = 0.00162233, Final residual = 3.4681e-09, No Iterations 3
DILUPBiCGStab:  Solving for h, Initial residual = 0.00178965, Final residual = 2.82637e-09, No Iterations 3
min/max(T) = 300, 1044.97
GAMGPCG:  Solving for p_rgh, Initial residual = 0.0161873, Final residual = 1.51524e-07, No Iterations 5
diagonal:  Solving for rho, Initial residual = 0, Final residual = 0, No Iterations 0
time step continuity errors : sum local = 6.25316e-09, global = -9.51148e-10, cumulative = 2.59448e-06
GAMGPCG:  Solving for p_rgh, Initial residual = 0.00260969, Final residual = 3.14948e-07, No Iterations 4
diagonal:  Solving for rho, Initial residual = 0, Final residual = 0, No Iterations 0
time step continuity errors : sum local = 1.28025e-08, global = 2.35639e-09, cumulative = 2.59683e-06
DILUPBiCGStab:  Solving for omega, Initial residual = 7.79796e-05, Final residual = 1.5587e-09, No Iterations 2
DILUPBiCGStab:  Solving for k, Initial residual = 0.0034869, Final residual = 2.89698e-09, No Iterations 3

ExecutionTime = 293.61 s  ClockTime = 294 s

    Overall     = 0.00126874, 0.01
Time = 2497

diagonal:  Solving for rho, Initial residual = 0, Final residual = 0, No Iterations 0

Execution time for mesh.update() = 0 s

DILUPBiCGStab:  Solving for Ux, Initial residual = 0.00524229, Final residual = 6.78559e-09, No Iterations 3
DILUPBiCGStab:  Solving for Uy, Initial residual = 0.00458301, Final residual = 6.68883e-09, No Iterations 3
DILUPBiCGStab:  Solving for O2, Initial residual = 0.00164796, Final residual = 1.01361e-09, No Iterations 3
DILUPBiCGStab:  Solving for H2O, Initial residual = 0.00164796, Final residual = 1.01361e-09, No Iterations 3
DILUPBiCGStab:  Solving for CH4, Initial residual = 0, Final residual = 0, No Iterations 0
DILUPBiCGStab:  Solving for CO2, Initial residual = 0.00164796, Final residual = 1.01361e-09, No Iterations 3
DILUPBiCGStab:  Solving for h, Initial residual = 0.00182561, Final residual = 2.9418e-09, No Iterations 3
min/max(T) = 300, 1044.97
GAMGPCG:  Solving for p_rgh, Initial residual = 0.0167852, Final residual = 1.69557e-07, No Iterations 5
diagonal:  Solving for rho, Initial residual = 0, Final residual = 0, No Iterations 0
time step continuity errors : sum local = 6.88978e-09, global = -1.94809e-10, cumulative = 2.59664e-06
GAMGPCG:  Solving for p_rgh, Initial residual = 0.00260915, Final residual = 3.41785e-07, No Iterations 4
diagonal:  Solving for rho, Initial residual = 0, Final residual = 0, No Iterations 0
time step continuity errors : sum local = 1.38199e-08, global = 2.45386e-09, cumulative = 2.59909e-06
DILUPBiCGStab:  Solving for omega, Initial residual = 7.92202e-05, Final residual = 1.58334e-09, No Iterations 2
DILUPBiCGStab:  Solving for k, Initial residual = 0.00350545, Final residual = 3.21873e-09, No Iterations 3
bounding k, min: -1.0079e-05 max: 0.0438788 average: 0.00358549

ExecutionTime = 293.72 s  ClockTime = 294 s

    Overall     = 0.00126705, 0.01
Time = 2498

diagonal:  Solving for rho, Initial residual = 0, Final residual = 0, No Iterations 0

Execution time for mesh.update() = 0 s

DILUPBiCGStab:  Solving for Ux, Initial residual = 0.00522287, Final residual = 6.34402e-09, No Iterations 3
DILUPBiCGStab:  Solving for Uy, Initial residual = 0.00458821, Final residual = 6.20637e-09, No Iterations 3
DILUPBiCGStab:  Solving for O2, Initial residual = 0.00166045, Final residual = 3.63635e-09, No Iterations 3
DILUPBiCGStab:  Solving for H2O, Initial residual = 0.00166045, Final residual = 3.63635e-09, No Iterations 3
DILUPBiCGStab:  Solving for CH4, Initial residual = 0, Final residual = 0, No Iterations 0
DILUPBiCGStab:  Solving for CO2, Initial residual = 0.00166045, Final residual = 3.63635e-09, No Iterations 3
DILUPBiCGStab:  Solving for h, Initial residual = 0.00184193, Final residual = 2.65959e-09, No Iterations 3
min/max(T) = 300, 1044.97
GAMGPCG:  Solving for p_rgh, Initial residual = 0.0170951, Final residual = 1.66199e-07, No Iterations 5
diagonal:  Solving for rho, Initial residual = 0, Final residual = 0, No Iterations 0
time step continuity errors : sum local = 6.74265e-09, global = -2.00435e-10, cumulative = 2.59889e-06
GAMGPCG:  Solving for p_rgh, Initial residual = 0.00257552, Final residual = 3.86535e-07, No Iterations 4
diagonal:  Solving for rho, Initial residual = 0, Final residual = 0, No Iterations 0
time step continuity errors : sum local = 1.5696e-08, global = 2.93558e-09, cumulative = 2.60183e-06
DILUPBiCGStab:  Solving for omega, Initial residual = 7.81643e-05, Final residual = 1.56602e-09, No Iterations 2
DILUPBiCGStab:  Solving for k, Initial residual = 0.0034649, Final residual = 8.42171e-09, No Iterations 3

ExecutionTime = 293.84 s  ClockTime = 294 s

    Overall     = 0.00127279, 0.01
Time = 2499

diagonal:  Solving for rho, Initial residual = 0, Final residual = 0, No Iterations 0

Execution time for mesh.update() = 0 s

DILUPBiCGStab:  Solving for Ux, Initial residual = 0.00511885, Final residual = 6.96381e-09, No Iterations 3
DILUPBiCGStab:  Solving for Uy, Initial residual = 0.00457973, Final residual = 5.87392e-09, No Iterations 3
DILUPBiCGStab:  Solving for O2, Initial residual = 0.00166213, Final residual = 5.13278e-09, No Iterations 3
DILUPBiCGStab:  Solving for H2O, Initial residual = 0.00166213, Final residual = 5.13286e-09, No Iterations 3
DILUPBiCGStab:  Solving for CH4, Initial residual = 0, Final residual = 0, No Iterations 0
DILUPBiCGStab:  Solving for CO2, Initial residual = 0.00166213, Final residual = 5.13286e-09, No Iterations 3
DILUPBiCGStab:  Solving for h, Initial residual = 0.00184512, Final residual = 2.68712e-09, No Iterations 3
min/max(T) = 300, 1044.97
GAMGPCG:  Solving for p_rgh, Initial residual = 0.016861, Final residual = 1.49163e-07, No Iterations 5
diagonal:  Solving for rho, Initial residual = 0, Final residual = 0, No Iterations 0
time step continuity errors : sum local = 6.04409e-09, global = 5.97329e-11, cumulative = 2.60189e-06
GAMGPCG:  Solving for p_rgh, Initial residual = 0.00254626, Final residual = 4.10511e-07, No Iterations 4
diagonal:  Solving for rho, Initial residual = 0, Final residual = 0, No Iterations 0
time step continuity errors : sum local = 1.65059e-08, global = 3.12756e-09, cumulative = 2.60501e-06
DILUPBiCGStab:  Solving for omega, Initial residual = 7.81781e-05, Final residual = 1.56944e-09, No Iterations 2
DILUPBiCGStab:  Solving for k, Initial residual = 0.00345139, Final residual = 4.15906e-09, No Iterations 3

ExecutionTime = 293.96 s  ClockTime = 294 s

    Overall     = 0.00127094, 0.01
Time = 2500

diagonal:  Solving for rho, Initial residual = 0, Final residual = 0, No Iterations 0

Execution time for mesh.update() = 0 s

DILUPBiCGStab:  Solving for Ux, Initial residual = 0.0051116, Final residual = 7.68267e-09, No Iterations 3
DILUPBiCGStab:  Solving for Uy, Initial residual = 0.00456685, Final residual = 5.68638e-09, No Iterations 3
GAMGPCG:  Solving for G, Initial residual = 0.207023, Final residual = 7.58924e-05, No Iterations 4
DILUPBiCGStab:  Solving for O2, Initial residual = 0.00165854, Final residual = 3.7067e-09, No Iterations 3
DILUPBiCGStab:  Solving for H2O, Initial residual = 0.00165854, Final residual = 3.7067e-09, No Iterations 3
DILUPBiCGStab:  Solving for CH4, Initial residual = 0, Final residual = 0, No Iterations 0
DILUPBiCGStab:  Solving for CO2, Initial residual = 0.00165854, Final residual = 3.7067e-09, No Iterations 3
DILUPBiCGStab:  Solving for h, Initial residual = 0.00184076, Final residual = 2.6417e-09, No Iterations 3
min/max(T) = 300, 1044.97
GAMGPCG:  Solving for p_rgh, Initial residual = 0.017116, Final residual = 1.50595e-07, No Iterations 5
diagonal:  Solving for rho, Initial residual = 0, Final residual = 0, No Iterations 0
time step continuity errors : sum local = 6.20532e-09, global = 8.73353e-11, cumulative = 2.6051e-06
GAMGPCG:  Solving for p_rgh, Initial residual = 0.00263199, Final residual = 3.30514e-07, No Iterations 4
diagonal:  Solving for rho, Initial residual = 0, Final residual = 0, No Iterations 0
time step continuity errors : sum local = 1.30779e-08, global = 2.38767e-09, cumulative = 2.60749e-06
DILUPBiCGStab:  Solving for omega, Initial residual = 7.76255e-05, Final residual = 1.49894e-09, No Iterations 2
DILUPBiCGStab:  Solving for k, Initial residual = 0.00353694, Final residual = 4.29796e-09, No Iterations 3

ExecutionTime = 294.2 s  ClockTime = 294 s


Patch Mean : 302.937
Patch Variance : 0.0178848
Patch Gradient : 0.205934
End
