/*---------------------------------------------------------------------------*\
  =========                 |
  \\      /  F ield         | OpenFOAM: The Open Source CFD Toolbox
   \\    /   O peration     | Website:  https://openfoam.org
    \\  /    A nd           | Version:  dev
     \\/     M anipulation  |
\*---------------------------------------------------------------------------*/
Build  : dev-cabe48fb62c1
Exec   : fireDyMFoam
Date   : Apr 15 2019
Time   : 14:08:17
Host   : "Host"
PID    : 7637
I/O    : uncollated
Case   : /home/tesla/OpenFOAM/tesla-dev/run/rollerOpt_COBYLA_NEW
nProcs : 1
sigFpe : Enabling floating point exception trapping (FOAM_SIGFPE).
fileModificationChecking : Monitoring run-time modified files using timeStampMaster (fileModificationSkew 10)
allowSystemOperations : Allowing user-supplied system call operations

// * * * * * * * * * * * * * * * * * * * * * * * * * * * * * * * * * * * * * //
Create time

--> FOAM Warning : 
    From function void* Foam::dlOpen(const Foam::fileName&, bool)
    in file POSIX.C at line 1268
    dlopen error : libgroovyBC.so: cannot open shared object file: No such file or directory
--> FOAM Warning : 
    From function bool Foam::dlLibraryTable::open(const Foam::fileName&, bool)
    in file db/dynamicLibrary/dlLibraryTable/dlLibraryTable.C at line 105
    could not load "libgroovyBC.so"
Create mesh for time = 250

Selecting dynamicFvMesh dynamicRefineFvMesh
Detected 542 cells that are protected from refinement. Writing these to cellSet protectedCells.

PIMPLE: No convergence criteria found


PIMPLE: Operating solver in PISO mode


Initializing Solver

Selecting thermodynamics package 
{
    type            hePsiThermo;
    mixture         reactingMixture;
    transport       sutherland;
    thermo          janaf;
    energy          sensibleEnthalpy;
    equationOfState perfectGas;
    specie          specie;
}

Selecting chemistryReader foamChemistryReader
    elements not defined in "/home/tesla/OpenFOAM/tesla-dev/run/rollerOpt_COBYLA_NEW/constant/reactions"
Reading/calculating face flux field phi

No MRF models present

Selecting turbulence model type RAS
Selecting RAS turbulence model kOmegaSST
Selecting patchDistMethod meshWave
kOmegaSSTCoeffs
{
    delta           cubeRootVol;
    cubeRootVolCoeffs
    {
        deltaCoeff      1;
    }
    alphaK1         0.85;
    alphaK2         1;
    alphaOmega1     0.5;
    alphaOmega2     0.856;
    gamma1          0.555556;
    gamma2          0.44;
    beta1           0.075;
    beta2           0.0828;
    betaStar        0.09;
    a1              0.31;
    b1              1;
    c1              10;
    F3              false;
}

Selecting combustion model none<psiThermoCombustion>
--> FOAM Warning : 
    From function static Foam::autoPtr<T> Foam::combustionModel::New(typename CombustionModel::reactionThermo&, const Foam::compressibleTurbulenceModel&, const Foam::word&) [with CombustionModel = Foam::CombustionModel<Foam::psiReactionThermo>; typename CombustionModel::reactionThermo = Foam::psiReactionThermo]
    in file /home/tesla/OpenFOAM/OpenFOAM-dev/src/combustionModels/lnInclude/combustionModelTemplates.C at line 69
    Template parameters are no longer required when selecting a combustionModel. This information is now obtained directly from the thermodynamics. Actually selecting combustion model none.

Reading g

Reading hRef
Calculating field g.h


Reading pRef
Selecting radiationModel P1
Selecting absorptionEmissionModel greyMeanAbsorptionEmission
Selecting scatterModel none
Selecting sootModel none
Creating finite volume options from "system/fvOptions"

No finite volume options present
Using LTS

Starting time loop

Using dynamicCode for functionObject patchCalcs at line 64 in "/home/tesla/OpenFOAM/tesla-dev/run/rollerOpt_COBYLA_NEW/system/controlDict.functions.patchCalcs"
    Overall     = 0.00137102, 0.01
Time = 251

diagonal:  Solving for rho, Initial residual = 0, Final residual = 0, No Iterations 0

Execution time for mesh.update() = 0 s

DILUPBiCGStab:  Solving for Ux, Initial residual = 0.00496771, Final residual = 4.40526e-09, No Iterations 3
DILUPBiCGStab:  Solving for Uy, Initial residual = 0.00789711, Final residual = 5.48754e-09, No Iterations 3
GAMGPCG:  Solving for G, Initial residual = 0.0266832, Final residual = 6.34131e-05, No Iterations 3
DILUPBiCGStab:  Solving for O2, Initial residual = 0.00279733, Final residual = 2.74062e-09, No Iterations 3
DILUPBiCGStab:  Solving for H2O, Initial residual = 0.00279733, Final residual = 2.74115e-09, No Iterations 3
DILUPBiCGStab:  Solving for CH4, Initial residual = 0, Final residual = 0, No Iterations 0
DILUPBiCGStab:  Solving for CO2, Initial residual = 0.00279733, Final residual = 2.74115e-09, No Iterations 3
DILUPBiCGStab:  Solving for h, Initial residual = 0.00321792, Final residual = 2.86206e-09, No Iterations 3
min/max(T) = 300, 1044.98
GAMGPCG:  Solving for p_rgh, Initial residual = 0.0197329, Final residual = 1.9813e-07, No Iterations 5
diagonal:  Solving for rho, Initial residual = 0, Final residual = 0, No Iterations 0
time step continuity errors : sum local = 2.46914e-06, global = -1.65318e-07, cumulative = -1.65318e-07
GAMGPCG:  Solving for p_rgh, Initial residual = 0.00234506, Final residual = 1.70404e-07, No Iterations 4
diagonal:  Solving for rho, Initial residual = 0, Final residual = 0, No Iterations 0
time step continuity errors : sum local = 2.46718e-06, global = -1.64049e-07, cumulative = -3.29367e-07
DILUPBiCGStab:  Solving for omega, Initial residual = 0.000108489, Final residual = 1.90658e-09, No Iterations 2
DILUPBiCGStab:  Solving for k, Initial residual = 0.00551759, Final residual = 3.85467e-09, No Iterations 3

ExecutionTime = 0.38 s  ClockTime = 0 s

    Overall     = 0.00137035, 0.01
Time = 252

diagonal:  Solving for rho, Initial residual = 0, Final residual = 0, No Iterations 0

Execution time for mesh.update() = 0 s

DILUPBiCGStab:  Solving for Ux, Initial residual = 0.0049666, Final residual = 4.25019e-09, No Iterations 3
DILUPBiCGStab:  Solving for Uy, Initial residual = 0.00789538, Final residual = 6.17561e-09, No Iterations 3
DILUPBiCGStab:  Solving for O2, Initial residual = 0.00280028, Final residual = 2.64617e-09, No Iterations 3
DILUPBiCGStab:  Solving for H2O, Initial residual = 0.00280028, Final residual = 2.64635e-09, No Iterations 3
DILUPBiCGStab:  Solving for CH4, Initial residual = 0, Final residual = 0, No Iterations 0
DILUPBiCGStab:  Solving for CO2, Initial residual = 0.00280028, Final residual = 2.64638e-09, No Iterations 3
DILUPBiCGStab:  Solving for h, Initial residual = 0.00322394, Final residual = 2.71683e-09, No Iterations 3
min/max(T) = 300, 1044.98
GAMGPCG:  Solving for p_rgh, Initial residual = 0.0199506, Final residual = 2.2092e-07, No Iterations 5
diagonal:  Solving for rho, Initial residual = 0, Final residual = 0, No Iterations 0
time step continuity errors : sum local = 1.33581e-08, global = -9.99846e-10, cumulative = -3.30367e-07
GAMGPCG:  Solving for p_rgh, Initial residual = 0.00235656, Final residual = 3.3731e-07, No Iterations 4
diagonal:  Solving for rho, Initial residual = 0, Final residual = 0, No Iterations 0
time step continuity errors : sum local = 1.94118e-08, global = 8.76776e-10, cumulative = -3.2949e-07
DILUPBiCGStab:  Solving for omega, Initial residual = 0.000108537, Final residual = 1.87204e-09, No Iterations 2
DILUPBiCGStab:  Solving for k, Initial residual = 0.00552381, Final residual = 3.96629e-09, No Iterations 3

ExecutionTime = 0.49 s  ClockTime = 1 s

    Overall     = 0.00136985, 0.01
Time = 253

diagonal:  Solving for rho, Initial residual = 0, Final residual = 0, No Iterations 0

Execution time for mesh.update() = 0 s

DILUPBiCGStab:  Solving for Ux, Initial residual = 0.00497542, Final residual = 4.33709e-09, No Iterations 3
DILUPBiCGStab:  Solving for Uy, Initial residual = 0.0078826, Final residual = 5.49474e-09, No Iterations 3
DILUPBiCGStab:  Solving for O2, Initial residual = 0.00279751, Final residual = 2.64061e-09, No Iterations 3
DILUPBiCGStab:  Solving for H2O, Initial residual = 0.00279753, Final residual = 2.64059e-09, No Iterations 3
DILUPBiCGStab:  Solving for CH4, Initial residual = 0, Final residual = 0, No Iterations 0
DILUPBiCGStab:  Solving for CO2, Initial residual = 0.00279753, Final residual = 2.64061e-09, No Iterations 3
DILUPBiCGStab:  Solving for h, Initial residual = 0.00321958, Final residual = 2.65819e-09, No Iterations 3
min/max(T) = 300, 1044.98
GAMGPCG:  Solving for p_rgh, Initial residual = 0.0199508, Final residual = 2.07236e-07, No Iterations 5
diagonal:  Solving for rho, Initial residual = 0, Final residual = 0, No Iterations 0
time step continuity errors : sum local = 1.24381e-08, global = -1.20682e-09, cumulative = -3.30697e-07
GAMGPCG:  Solving for p_rgh, Initial residual = 0.00233877, Final residual = 9.70324e-07, No Iterations 3
diagonal:  Solving for rho, Initial residual = 0, Final residual = 0, No Iterations 0
time step continuity errors : sum local = 5.63543e-08, global = -2.59961e-09, cumulative = -3.33297e-07
DILUPBiCGStab:  Solving for omega, Initial residual = 0.000108271, Final residual = 1.9322e-09, No Iterations 2
DILUPBiCGStab:  Solving for k, Initial residual = 0.00554393, Final residual = 8.50399e-09, No Iterations 3

ExecutionTime = 0.61 s  ClockTime = 1 s

    Overall     = 0.00137049, 0.01
Time = 254

diagonal:  Solving for rho, Initial residual = 0, Final residual = 0, No Iterations 0

Execution time for mesh.update() = 0 s

DILUPBiCGStab:  Solving for Ux, Initial residual = 0.00498028, Final residual = 4.17113e-09, No Iterations 3
DILUPBiCGStab:  Solving for Uy, Initial residual = 0.00788654, Final residual = 5.65793e-09, No Iterations 3
DILUPBiCGStab:  Solving for O2, Initial residual = 0.00280854, Final residual = 3.41208e-09, No Iterations 3
DILUPBiCGStab:  Solving for H2O, Initial residual = 0.00280855, Final residual = 3.41136e-09, No Iterations 3
DILUPBiCGStab:  Solving for CH4, Initial residual = 0, Final residual = 0, No Iterations 0
DILUPBiCGStab:  Solving for CO2, Initial residual = 0.00280855, Final residual = 3.4114e-09, No Iterations 3
DILUPBiCGStab:  Solving for h, Initial residual = 0.00324288, Final residual = 3.17435e-09, No Iterations 3
min/max(T) = 300, 1044.98
GAMGPCG:  Solving for p_rgh, Initial residual = 0.0204834, Final residual = 2.07517e-07, No Iterations 5
diagonal:  Solving for rho, Initial residual = 0, Final residual = 0, No Iterations 0
time step continuity errors : sum local = 1.24283e-08, global = -7.55871e-10, cumulative = -3.34052e-07
GAMGPCG:  Solving for p_rgh, Initial residual = 0.00239507, Final residual = 3.54637e-07, No Iterations 4
diagonal:  Solving for rho, Initial residual = 0, Final residual = 0, No Iterations 0
time step continuity errors : sum local = 2.03343e-08, global = 1.11799e-09, cumulative = -3.32934e-07
DILUPBiCGStab:  Solving for omega, Initial residual = 0.000107975, Final residual = 1.81209e-09, No Iterations 2
DILUPBiCGStab:  Solving for k, Initial residual = 0.00557146, Final residual = 8.31041e-10, No Iterations 3

ExecutionTime = 0.73 s  ClockTime = 1 s

    Overall     = 0.00137132, 0.01
Time = 255

diagonal:  Solving for rho, Initial residual = 0, Final residual = 0, No Iterations 0

Execution time for mesh.update() = 0 s

DILUPBiCGStab:  Solving for Ux, Initial residual = 0.004992, Final residual = 4.30373e-09, No Iterations 3
DILUPBiCGStab:  Solving for Uy, Initial residual = 0.00790178, Final residual = 5.77932e-09, No Iterations 3
DILUPBiCGStab:  Solving for O2, Initial residual = 0.00281049, Final residual = 2.3313e-09, No Iterations 3
DILUPBiCGStab:  Solving for H2O, Initial residual = 0.00281051, Final residual = 2.33122e-09, No Iterations 3
DILUPBiCGStab:  Solving for CH4, Initial residual = 0, Final residual = 0, No Iterations 0
DILUPBiCGStab:  Solving for CO2, Initial residual = 0.00281051, Final residual = 2.33124e-09, No Iterations 3
DILUPBiCGStab:  Solving for h, Initial residual = 0.00324612, Final residual = 2.22043e-09, No Iterations 3
min/max(T) = 300, 1044.98
GAMGPCG:  Solving for p_rgh, Initial residual = 0.0201682, Final residual = 8.6472e-07, No Iterations 4
diagonal:  Solving for rho, Initial residual = 0, Final residual = 0, No Iterations 0
time step continuity errors : sum local = 5.28158e-08, global = -4.25769e-10, cumulative = -3.3336e-07
GAMGPCG:  Solving for p_rgh, Initial residual = 0.00236117, Final residual = 9.1457e-07, No Iterations 3
diagonal:  Solving for rho, Initial residual = 0, Final residual = 0, No Iterations 0
time step continuity errors : sum local = 5.26914e-08, global = -1.82982e-09, cumulative = -3.3519e-07
DILUPBiCGStab:  Solving for omega, Initial residual = 0.000107432, Final residual = 1.65213e-09, No Iterations 2
DILUPBiCGStab:  Solving for k, Initial residual = 0.00558912, Final residual = 1.4207e-09, No Iterations 3

ExecutionTime = 0.84 s  ClockTime = 1 s

    Overall     = 0.00137394, 0.01
Time = 256

diagonal:  Solving for rho, Initial residual = 0, Final residual = 0, No Iterations 0

Execution time for mesh.update() = 0 s

DILUPBiCGStab:  Solving for Ux, Initial residual = 0.0049754, Final residual = 4.04475e-09, No Iterations 3
DILUPBiCGStab:  Solving for Uy, Initial residual = 0.00788386, Final residual = 5.70566e-09, No Iterations 3
DILUPBiCGStab:  Solving for O2, Initial residual = 0.00282081, Final residual = 2.69652e-09, No Iterations 3
DILUPBiCGStab:  Solving for H2O, Initial residual = 0.00282082, Final residual = 2.69646e-09, No Iterations 3
DILUPBiCGStab:  Solving for CH4, Initial residual = 0, Final residual = 0, No Iterations 0
DILUPBiCGStab:  Solving for CO2, Initial residual = 0.00282082, Final residual = 2.69649e-09, No Iterations 3
DILUPBiCGStab:  Solving for h, Initial residual = 0.00325858, Final residual = 2.437e-09, No Iterations 3
min/max(T) = 300, 1044.98
GAMGPCG:  Solving for p_rgh, Initial residual = 0.0199781, Final residual = 9.63717e-07, No Iterations 4
diagonal:  Solving for rho, Initial residual = 0, Final residual = 0, No Iterations 0
time step continuity errors : sum local = 5.82703e-08, global = 1.32119e-09, cumulative = -3.33869e-07
GAMGPCG:  Solving for p_rgh, Initial residual = 0.00239443, Final residual = 3.32876e-07, No Iterations 4
diagonal:  Solving for rho, Initial residual = 0, Final residual = 0, No Iterations 0
time step continuity errors : sum local = 1.90662e-08, global = 3.43301e-10, cumulative = -3.33526e-07
DILUPBiCGStab:  Solving for omega, Initial residual = 0.000106885, Final residual = 1.48649e-09, No Iterations 2
DILUPBiCGStab:  Solving for k, Initial residual = 0.00560216, Final residual = 9.70832e-09, No Iterations 3

ExecutionTime = 0.96 s  ClockTime = 1 s

    Overall     = 0.00137654, 0.01
Time = 257

diagonal:  Solving for rho, Initial residual = 0, Final residual = 0, No Iterations 0

Execution time for mesh.update() = 0 s

DILUPBiCGStab:  Solving for Ux, Initial residual = 0.00498871, Final residual = 4.10304e-09, No Iterations 3
DILUPBiCGStab:  Solving for Uy, Initial residual = 0.00785175, Final residual = 5.84846e-09, No Iterations 3
DILUPBiCGStab:  Solving for O2, Initial residual = 0.00281455, Final residual = 2.06803e-09, No Iterations 3
DILUPBiCGStab:  Solving for H2O, Initial residual = 0.00281456, Final residual = 2.06808e-09, No Iterations 3
DILUPBiCGStab:  Solving for CH4, Initial residual = 0, Final residual = 0, No Iterations 0
DILUPBiCGStab:  Solving for CO2, Initial residual = 0.00281456, Final residual = 2.06809e-09, No Iterations 3
DILUPBiCGStab:  Solving for h, Initial residual = 0.00325755, Final residual = 1.9944e-09, No Iterations 3
min/max(T) = 300, 1044.98
GAMGPCG:  Solving for p_rgh, Initial residual = 0.0202022, Final residual = 7.01495e-07, No Iterations 4
diagonal:  Solving for rho, Initial residual = 0, Final residual = 0, No Iterations 0
time step continuity errors : sum local = 4.26468e-08, global = 8.21968e-10, cumulative = -3.32704e-07
GAMGPCG:  Solving for p_rgh, Initial residual = 0.00236396, Final residual = 9.6882e-07, No Iterations 3
diagonal:  Solving for rho, Initial residual = 0, Final residual = 0, No Iterations 0
time step continuity errors : sum local = 5.51871e-08, global = -9.84483e-10, cumulative = -3.33688e-07
DILUPBiCGStab:  Solving for omega, Initial residual = 0.000107077, Final residual = 1.39894e-09, No Iterations 2
DILUPBiCGStab:  Solving for k, Initial residual = 0.00560516, Final residual = 5.51352e-09, No Iterations 3

ExecutionTime = 1.07 s  ClockTime = 1 s

    Overall     = 0.00138034, 0.01
Time = 258

diagonal:  Solving for rho, Initial residual = 0, Final residual = 0, No Iterations 0

Execution time for mesh.update() = 0 s

DILUPBiCGStab:  Solving for Ux, Initial residual = 0.00498274, Final residual = 4.23025e-09, No Iterations 3
DILUPBiCGStab:  Solving for Uy, Initial residual = 0.00782615, Final residual = 5.89711e-09, No Iterations 3
DILUPBiCGStab:  Solving for O2, Initial residual = 0.00281585, Final residual = 2.04357e-09, No Iterations 3
DILUPBiCGStab:  Solving for H2O, Initial residual = 0.00281586, Final residual = 2.04362e-09, No Iterations 3
DILUPBiCGStab:  Solving for CH4, Initial residual = 0, Final residual = 0, No Iterations 0
DILUPBiCGStab:  Solving for CO2, Initial residual = 0.00281586, Final residual = 2.04362e-09, No Iterations 3
DILUPBiCGStab:  Solving for h, Initial residual = 0.00325901, Final residual = 2.04794e-09, No Iterations 3
min/max(T) = 300, 1044.98
GAMGPCG:  Solving for p_rgh, Initial residual = 0.0196483, Final residual = 8.36736e-07, No Iterations 4
diagonal:  Solving for rho, Initial residual = 0, Final residual = 0, No Iterations 0
time step continuity errors : sum local = 5.00166e-08, global = -3.43544e-10, cumulative = -3.34032e-07
GAMGPCG:  Solving for p_rgh, Initial residual = 0.00237163, Final residual = 2.75618e-07, No Iterations 4
diagonal:  Solving for rho, Initial residual = 0, Final residual = 0, No Iterations 0
time step continuity errors : sum local = 1.56329e-08, global = 5.59024e-10, cumulative = -3.33473e-07
DILUPBiCGStab:  Solving for omega, Initial residual = 0.000107296, Final residual = 1.41594e-09, No Iterations 2
DILUPBiCGStab:  Solving for k, Initial residual = 0.00563364, Final residual = 4.73054e-09, No Iterations 3

ExecutionTime = 1.19 s  ClockTime = 1 s

    Overall     = 0.0013845, 0.01
Time = 259

diagonal:  Solving for rho, Initial residual = 0, Final residual = 0, No Iterations 0

Execution time for mesh.update() = 0 s

DILUPBiCGStab:  Solving for Ux, Initial residual = 0.00499838, Final residual = 4.33811e-09, No Iterations 3
DILUPBiCGStab:  Solving for Uy, Initial residual = 0.00781631, Final residual = 5.71162e-09, No Iterations 3
DILUPBiCGStab:  Solving for O2, Initial residual = 0.00282779, Final residual = 2.18027e-09, No Iterations 3
DILUPBiCGStab:  Solving for H2O, Initial residual = 0.0028278, Final residual = 2.18029e-09, No Iterations 3
DILUPBiCGStab:  Solving for CH4, Initial residual = 0, Final residual = 0, No Iterations 0
DILUPBiCGStab:  Solving for CO2, Initial residual = 0.0028278, Final residual = 2.18029e-09, No Iterations 3
DILUPBiCGStab:  Solving for h, Initial residual = 0.00327501, Final residual = 2.14636e-09, No Iterations 3
min/max(T) = 300, 1044.98
GAMGPCG:  Solving for p_rgh, Initial residual = 0.0209756, Final residual = 7.47625e-07, No Iterations 4
diagonal:  Solving for rho, Initial residual = 0, Final residual = 0, No Iterations 0
time step continuity errors : sum local = 4.51342e-08, global = 1.79411e-09, cumulative = -3.31679e-07
GAMGPCG:  Solving for p_rgh, Initial residual = 0.00238476, Final residual = 8.56425e-07, No Iterations 3
diagonal:  Solving for rho, Initial residual = 0, Final residual = 0, No Iterations 0
time step continuity errors : sum local = 4.90497e-08, global = 6.87021e-10, cumulative = -3.30991e-07
DILUPBiCGStab:  Solving for omega, Initial residual = 0.0001073, Final residual = 1.48896e-09, No Iterations 2
DILUPBiCGStab:  Solving for k, Initial residual = 0.00564937, Final residual = 3.48358e-09, No Iterations 3

ExecutionTime = 1.3 s  ClockTime = 1 s

    Overall     = 0.00139047, 0.01
Time = 260

diagonal:  Solving for rho, Initial residual = 0, Final residual = 0, No Iterations 0

Execution time for mesh.update() = 0 s

DILUPBiCGStab:  Solving for Ux, Initial residual = 0.00501344, Final residual = 4.68324e-09, No Iterations 3
DILUPBiCGStab:  Solving for Uy, Initial residual = 0.0078491, Final residual = 5.85909e-09, No Iterations 3
GAMGPCG:  Solving for G, Initial residual = 0.13505, Final residual = 3.46338e-05, No Iterations 6
DILUPBiCGStab:  Solving for O2, Initial residual = 0.00283688, Final residual = 2.4302e-09, No Iterations 3
DILUPBiCGStab:  Solving for H2O, Initial residual = 0.00283688, Final residual = 2.43021e-09, No Iterations 3
DILUPBiCGStab:  Solving for CH4, Initial residual = 0, Final residual = 0, No Iterations 0
DILUPBiCGStab:  Solving for CO2, Initial residual = 0.00283688, Final residual = 2.43021e-09, No Iterations 3
DILUPBiCGStab:  Solving for h, Initial residual = 0.00328721, Final residual = 2.33058e-09, No Iterations 3
min/max(T) = 300, 1044.98
GAMGPCG:  Solving for p_rgh, Initial residual = 0.0210089, Final residual = 9.97199e-07, No Iterations 4
diagonal:  Solving for rho, Initial residual = 0, Final residual = 0, No Iterations 0
time step continuity errors : sum local = 5.93472e-08, global = 4.69709e-09, cumulative = -3.26294e-07
GAMGPCG:  Solving for p_rgh, Initial residual = 0.00246767, Final residual = 2.28172e-07, No Iterations 4
diagonal:  Solving for rho, Initial residual = 0, Final residual = 0, No Iterations 0
time step continuity errors : sum local = 1.30416e-08, global = 9.27753e-10, cumulative = -3.25367e-07
DILUPBiCGStab:  Solving for omega, Initial residual = 0.000106322, Final residual = 1.56705e-09, No Iterations 2
DILUPBiCGStab:  Solving for k, Initial residual = 0.00565871, Final residual = 2.6766e-09, No Iterations 3

ExecutionTime = 1.55 s  ClockTime = 2 s

    Overall     = 0.00139555, 0.01
Time = 261

diagonal:  Solving for rho, Initial residual = 0, Final residual = 0, No Iterations 0

Execution time for mesh.update() = 0 s

DILUPBiCGStab:  Solving for Ux, Initial residual = 0.00501993, Final residual = 4.6702e-09, No Iterations 3
DILUPBiCGStab:  Solving for Uy, Initial residual = 0.007844, Final residual = 5.48514e-09, No Iterations 3
DILUPBiCGStab:  Solving for O2, Initial residual = 0.00284128, Final residual = 2.38056e-09, No Iterations 3
DILUPBiCGStab:  Solving for H2O, Initial residual = 0.00284128, Final residual = 2.38056e-09, No Iterations 3
DILUPBiCGStab:  Solving for CH4, Initial residual = 0, Final residual = 0, No Iterations 0
DILUPBiCGStab:  Solving for CO2, Initial residual = 0.00284128, Final residual = 2.38056e-09, No Iterations 3
DILUPBiCGStab:  Solving for h, Initial residual = 0.00329423, Final residual = 2.37929e-09, No Iterations 3
min/max(T) = 300, 1044.98
GAMGPCG:  Solving for p_rgh, Initial residual = 0.0217401, Final residual = 8.29167e-07, No Iterations 4
diagonal:  Solving for rho, Initial residual = 0, Final residual = 0, No Iterations 0
time step continuity errors : sum local = 5.03116e-08, global = -1.69957e-09, cumulative = -3.27066e-07
GAMGPCG:  Solving for p_rgh, Initial residual = 0.00248817, Final residual = 8.3572e-07, No Iterations 3
diagonal:  Solving for rho, Initial residual = 0, Final residual = 0, No Iterations 0
time step continuity errors : sum local = 4.80929e-08, global = -7.15317e-10, cumulative = -3.27782e-07
DILUPBiCGStab:  Solving for omega, Initial residual = 0.000106892, Final residual = 1.73577e-09, No Iterations 2
DILUPBiCGStab:  Solving for k, Initial residual = 0.00567071, Final residual = 2.58575e-09, No Iterations 3

ExecutionTime = 1.66 s  ClockTime = 2 s

    Overall     = 0.00140352, 0.01
Time = 262

diagonal:  Solving for rho, Initial residual = 0, Final residual = 0, No Iterations 0

Execution time for mesh.update() = 0 s

DILUPBiCGStab:  Solving for Ux, Initial residual = 0.00503587, Final residual = 5.02606e-09, No Iterations 3
DILUPBiCGStab:  Solving for Uy, Initial residual = 0.00785569, Final residual = 5.8868e-09, No Iterations 3
DILUPBiCGStab:  Solving for O2, Initial residual = 0.00285297, Final residual = 2.4041e-09, No Iterations 3
DILUPBiCGStab:  Solving for H2O, Initial residual = 0.00285297, Final residual = 2.40411e-09, No Iterations 3
DILUPBiCGStab:  Solving for CH4, Initial residual = 0, Final residual = 0, No Iterations 0
DILUPBiCGStab:  Solving for CO2, Initial residual = 0.00285297, Final residual = 2.40411e-09, No Iterations 3
DILUPBiCGStab:  Solving for h, Initial residual = 0.00331332, Final residual = 2.47325e-09, No Iterations 3
min/max(T) = 300, 1044.98
GAMGPCG:  Solving for p_rgh, Initial residual = 0.021688, Final residual = 2.41355e-07, No Iterations 5
diagonal:  Solving for rho, Initial residual = 0, Final residual = 0, No Iterations 0
time step continuity errors : sum local = 1.4253e-08, global = 7.70858e-10, cumulative = -3.27011e-07
GAMGPCG:  Solving for p_rgh, Initial residual = 0.00247237, Final residual = 2.57497e-07, No Iterations 4
diagonal:  Solving for rho, Initial residual = 0, Final residual = 0, No Iterations 0
time step continuity errors : sum local = 1.47182e-08, global = -2.87812e-10, cumulative = -3.27298e-07
DILUPBiCGStab:  Solving for omega, Initial residual = 0.000106611, Final residual = 1.87532e-09, No Iterations 2
DILUPBiCGStab:  Solving for k, Initial residual = 0.00567975, Final residual = 2.86753e-09, No Iterations 3

ExecutionTime = 1.78 s  ClockTime = 2 s

    Overall     = 0.00140966, 0.01
Time = 263

diagonal:  Solving for rho, Initial residual = 0, Final residual = 0, No Iterations 0

Execution time for mesh.update() = 0 s

DILUPBiCGStab:  Solving for Ux, Initial residual = 0.00507057, Final residual = 4.80971e-09, No Iterations 3
DILUPBiCGStab:  Solving for Uy, Initial residual = 0.00787097, Final residual = 5.47266e-09, No Iterations 3
DILUPBiCGStab:  Solving for O2, Initial residual = 0.00285431, Final residual = 2.60352e-09, No Iterations 3
DILUPBiCGStab:  Solving for H2O, Initial residual = 0.00285431, Final residual = 2.60352e-09, No Iterations 3
DILUPBiCGStab:  Solving for CH4, Initial residual = 0, Final residual = 0, No Iterations 0
DILUPBiCGStab:  Solving for CO2, Initial residual = 0.00285431, Final residual = 2.60351e-09, No Iterations 3
DILUPBiCGStab:  Solving for h, Initial residual = 0.0033138, Final residual = 2.71875e-09, No Iterations 3
min/max(T) = 300, 1044.98
GAMGPCG:  Solving for p_rgh, Initial residual = 0.021961, Final residual = 5.65119e-07, No Iterations 4
diagonal:  Solving for rho, Initial residual = 0, Final residual = 0, No Iterations 0
time step continuity errors : sum local = 3.35665e-08, global = 5.09614e-10, cumulative = -3.26789e-07
GAMGPCG:  Solving for p_rgh, Initial residual = 0.00253908, Final residual = 8.14683e-07, No Iterations 3
diagonal:  Solving for rho, Initial residual = 0, Final residual = 0, No Iterations 0
time step continuity errors : sum local = 4.7212e-08, global = 5.51191e-10, cumulative = -3.26238e-07
DILUPBiCGStab:  Solving for omega, Initial residual = 0.000107068, Final residual = 1.9583e-09, No Iterations 2
DILUPBiCGStab:  Solving for k, Initial residual = 0.00569834, Final residual = 3.57714e-09, No Iterations 3

ExecutionTime = 1.89 s  ClockTime = 2 s

    Overall     = 0.00142018, 0.01
Time = 264

diagonal:  Solving for rho, Initial residual = 0, Final residual = 0, No Iterations 0

Execution time for mesh.update() = 0 s

DILUPBiCGStab:  Solving for Ux, Initial residual = 0.00505168, Final residual = 5.03188e-09, No Iterations 3
DILUPBiCGStab:  Solving for Uy, Initial residual = 0.00785688, Final residual = 6.17544e-09, No Iterations 3
DILUPBiCGStab:  Solving for O2, Initial residual = 0.00285498, Final residual = 2.70585e-09, No Iterations 3
DILUPBiCGStab:  Solving for H2O, Initial residual = 0.00285498, Final residual = 2.70586e-09, No Iterations 3
DILUPBiCGStab:  Solving for CH4, Initial residual = 0, Final residual = 0, No Iterations 0
DILUPBiCGStab:  Solving for CO2, Initial residual = 0.00285498, Final residual = 2.70585e-09, No Iterations 3
DILUPBiCGStab:  Solving for h, Initial residual = 0.00331748, Final residual = 2.8647e-09, No Iterations 3
min/max(T) = 300, 1044.98
GAMGPCG:  Solving for p_rgh, Initial residual = 0.0221369, Final residual = 8.5841e-07, No Iterations 4
diagonal:  Solving for rho, Initial residual = 0, Final residual = 0, No Iterations 0
time step continuity errors : sum local = 5.10874e-08, global = -3.42581e-09, cumulative = -3.29663e-07
GAMGPCG:  Solving for p_rgh, Initial residual = 0.0024821, Final residual = 2.23079e-07, No Iterations 4
diagonal:  Solving for rho, Initial residual = 0, Final residual = 0, No Iterations 0
time step continuity errors : sum local = 1.28383e-08, global = 4.44236e-12, cumulative = -3.29659e-07
DILUPBiCGStab:  Solving for omega, Initial residual = 0.000106986, Final residual = 2.0084e-09, No Iterations 2
DILUPBiCGStab:  Solving for k, Initial residual = 0.0057048, Final residual = 4.14287e-09, No Iterations 3

ExecutionTime = 2.01 s  ClockTime = 2 s

    Overall     = 0.00142787, 0.01
Time = 265

diagonal:  Solving for rho, Initial residual = 0, Final residual = 0, No Iterations 0

Execution time for mesh.update() = 0 s

DILUPBiCGStab:  Solving for Ux, Initial residual = 0.005066, Final residual = 5.02546e-09, No Iterations 3
DILUPBiCGStab:  Solving for Uy, Initial residual = 0.00785982, Final residual = 6.15345e-09, No Iterations 3
DILUPBiCGStab:  Solving for O2, Initial residual = 0.00285514, Final residual = 2.96856e-09, No Iterations 3
DILUPBiCGStab:  Solving for H2O, Initial residual = 0.00285514, Final residual = 2.96855e-09, No Iterations 3
DILUPBiCGStab:  Solving for CH4, Initial residual = 0, Final residual = 0, No Iterations 0
DILUPBiCGStab:  Solving for CO2, Initial residual = 0.00285514, Final residual = 2.96855e-09, No Iterations 3
DILUPBiCGStab:  Solving for h, Initial residual = 0.00332363, Final residual = 3.17485e-09, No Iterations 3
min/max(T) = 300, 1044.98
GAMGPCG:  Solving for p_rgh, Initial residual = 0.0226668, Final residual = 6.61557e-07, No Iterations 4
diagonal:  Solving for rho, Initial residual = 0, Final residual = 0, No Iterations 0
time step continuity errors : sum local = 3.9022e-08, global = 5.93351e-09, cumulative = -3.23726e-07
GAMGPCG:  Solving for p_rgh, Initial residual = 0.00253596, Final residual = 8.56355e-07, No Iterations 3
diagonal:  Solving for rho, Initial residual = 0, Final residual = 0, No Iterations 0
time step continuity errors : sum local = 4.90759e-08, global = -1.96533e-09, cumulative = -3.25691e-07
DILUPBiCGStab:  Solving for omega, Initial residual = 0.000107137, Final residual = 2.09268e-09, No Iterations 2
DILUPBiCGStab:  Solving for k, Initial residual = 0.00572334, Final residual = 4.57316e-09, No Iterations 3

ExecutionTime = 2.13 s  ClockTime = 2 s

    Overall     = 0.00144078, 0.01
Time = 266

diagonal:  Solving for rho, Initial residual = 0, Final residual = 0, No Iterations 0

Execution time for mesh.update() = 0 s

DILUPBiCGStab:  Solving for Ux, Initial residual = 0.00507681, Final residual = 5.45816e-09, No Iterations 3
DILUPBiCGStab:  Solving for Uy, Initial residual = 0.0078542, Final residual = 6.13164e-09, No Iterations 3
DILUPBiCGStab:  Solving for O2, Initial residual = 0.00285232, Final residual = 3.38417e-09, No Iterations 3
DILUPBiCGStab:  Solving for H2O, Initial residual = 0.00285231, Final residual = 3.38416e-09, No Iterations 3
DILUPBiCGStab:  Solving for CH4, Initial residual = 0, Final residual = 0, No Iterations 0
DILUPBiCGStab:  Solving for CO2, Initial residual = 0.00285231, Final residual = 3.38415e-09, No Iterations 3
DILUPBiCGStab:  Solving for h, Initial residual = 0.00332237, Final residual = 3.63765e-09, No Iterations 3
min/max(T) = 300, 1044.98
GAMGPCG:  Solving for p_rgh, Initial residual = 0.0222086, Final residual = 6.67207e-07, No Iterations 4
diagonal:  Solving for rho, Initial residual = 0, Final residual = 0, No Iterations 0
time step continuity errors : sum local = 3.95203e-08, global = -5.20459e-09, cumulative = -3.30895e-07
GAMGPCG:  Solving for p_rgh, Initial residual = 0.00263682, Final residual = 2.35142e-07, No Iterations 4
diagonal:  Solving for rho, Initial residual = 0, Final residual = 0, No Iterations 0
time step continuity errors : sum local = 1.36056e-08, global = -1.72674e-09, cumulative = -3.32622e-07
DILUPBiCGStab:  Solving for omega, Initial residual = 0.000107071, Final residual = 2.14796e-09, No Iterations 2
DILUPBiCGStab:  Solving for k, Initial residual = 0.00572179, Final residual = 4.82716e-09, No Iterations 3

ExecutionTime = 2.24 s  ClockTime = 2 s

    Overall     = 0.00144988, 0.01
Time = 267

diagonal:  Solving for rho, Initial residual = 0, Final residual = 0, No Iterations 0

Execution time for mesh.update() = 0 s

DILUPBiCGStab:  Solving for Ux, Initial residual = 0.00511029, Final residual = 6.14885e-09, No Iterations 3
DILUPBiCGStab:  Solving for Uy, Initial residual = 0.00785553, Final residual = 6.57823e-09, No Iterations 3
DILUPBiCGStab:  Solving for O2, Initial residual = 0.00286389, Final residual = 5.18737e-09, No Iterations 3
DILUPBiCGStab:  Solving for H2O, Initial residual = 0.00286389, Final residual = 5.18737e-09, No Iterations 3
DILUPBiCGStab:  Solving for CH4, Initial residual = 0, Final residual = 0, No Iterations 0
DILUPBiCGStab:  Solving for CO2, Initial residual = 0.00286389, Final residual = 5.18737e-09, No Iterations 3
DILUPBiCGStab:  Solving for h, Initial residual = 0.00333472, Final residual = 4.95591e-09, No Iterations 3
min/max(T) = 300, 1044.98
GAMGPCG:  Solving for p_rgh, Initial residual = 0.0224491, Final residual = 7.32205e-07, No Iterations 4
diagonal:  Solving for rho, Initial residual = 0, Final residual = 0, No Iterations 0
time step continuity errors : sum local = 4.38267e-08, global = 6.71447e-09, cumulative = -3.25908e-07
GAMGPCG:  Solving for p_rgh, Initial residual = 0.0025781, Final residual = 8.80115e-08, No Iterations 4
diagonal:  Solving for rho, Initial residual = 0, Final residual = 0, No Iterations 0
time step continuity errors : sum local = 5.06363e-09, global = 8.78567e-10, cumulative = -3.25029e-07
DILUPBiCGStab:  Solving for omega, Initial residual = 0.000107233, Final residual = 2.15476e-09, No Iterations 2
DILUPBiCGStab:  Solving for k, Initial residual = 0.00573465, Final residual = 5.39617e-09, No Iterations 3

ExecutionTime = 2.35 s  ClockTime = 2 s

    Overall     = 0.00146227, 0.01
Time = 268

diagonal:  Solving for rho, Initial residual = 0, Final residual = 0, No Iterations 0

Execution time for mesh.update() = 0.01 s

DILUPBiCGStab:  Solving for Ux, Initial residual = 0.00508576, Final residual = 6.05647e-09, No Iterations 3
DILUPBiCGStab:  Solving for Uy, Initial residual = 0.0078239, Final residual = 6.91061e-09, No Iterations 3
DILUPBiCGStab:  Solving for O2, Initial residual = 0.00285786, Final residual = 5.57274e-09, No Iterations 3
DILUPBiCGStab:  Solving for H2O, Initial residual = 0.00285785, Final residual = 5.57279e-09, No Iterations 3
DILUPBiCGStab:  Solving for CH4, Initial residual = 0, Final residual = 0, No Iterations 0
DILUPBiCGStab:  Solving for CO2, Initial residual = 0.00285785, Final residual = 5.57279e-09, No Iterations 3
DILUPBiCGStab:  Solving for h, Initial residual = 0.00332301, Final residual = 5.6847e-09, No Iterations 3
min/max(T) = 300, 1044.98
GAMGPCG:  Solving for p_rgh, Initial residual = 0.0218269, Final residual = 5.3938e-07, No Iterations 4
diagonal:  Solving for rho, Initial residual = 0, Final residual = 0, No Iterations 0
time step continuity errors : sum local = 3.17802e-08, global = -1.46332e-09, cumulative = -3.26492e-07
GAMGPCG:  Solving for p_rgh, Initial residual = 0.00267054, Final residual = 8.70757e-08, No Iterations 4
diagonal:  Solving for rho, Initial residual = 0, Final residual = 0, No Iterations 0
time step continuity errors : sum local = 5.03954e-09, global = 3.90515e-10, cumulative = -3.26102e-07
DILUPBiCGStab:  Solving for omega, Initial residual = 0.000107703, Final residual = 2.09735e-09, No Iterations 2
DILUPBiCGStab:  Solving for k, Initial residual = 0.0057379, Final residual = 7.32131e-09, No Iterations 3

ExecutionTime = 2.47 s  ClockTime = 3 s

    Overall     = 0.00147427, 0.01
Time = 269

diagonal:  Solving for rho, Initial residual = 0, Final residual = 0, No Iterations 0

Execution time for mesh.update() = 0 s

DILUPBiCGStab:  Solving for Ux, Initial residual = 0.00512757, Final residual = 5.99695e-09, No Iterations 3
DILUPBiCGStab:  Solving for Uy, Initial residual = 0.00781579, Final residual = 7.06634e-09, No Iterations 3
DILUPBiCGStab:  Solving for O2, Initial residual = 0.00286771, Final residual = 2.51857e-09, No Iterations 3
DILUPBiCGStab:  Solving for H2O, Initial residual = 0.00286771, Final residual = 2.51859e-09, No Iterations 3
DILUPBiCGStab:  Solving for CH4, Initial residual = 0, Final residual = 0, No Iterations 0
DILUPBiCGStab:  Solving for CO2, Initial residual = 0.00286771, Final residual = 2.51859e-09, No Iterations 3
DILUPBiCGStab:  Solving for h, Initial residual = 0.0033478, Final residual = 3.6359e-09, No Iterations 3
min/max(T) = 300, 1044.98
GAMGPCG:  Solving for p_rgh, Initial residual = 0.0225892, Final residual = 8.76909e-07, No Iterations 4
diagonal:  Solving for rho, Initial residual = 0, Final residual = 0, No Iterations 0
time step continuity errors : sum local = 5.12836e-08, global = 9.05601e-09, cumulative = -3.17046e-07
GAMGPCG:  Solving for p_rgh, Initial residual = 0.00260718, Final residual = 9.21206e-07, No Iterations 3
diagonal:  Solving for rho, Initial residual = 0, Final residual = 0, No Iterations 0
time step continuity errors : sum local = 5.29528e-08, global = -8.71488e-10, cumulative = -3.17917e-07
DILUPBiCGStab:  Solving for omega, Initial residual = 0.000108417, Final residual = 1.94059e-09, No Iterations 2
DILUPBiCGStab:  Solving for k, Initial residual = 0.00574973, Final residual = 2.40291e-09, No Iterations 3

ExecutionTime = 2.58 s  ClockTime = 3 s

    Overall     = 0.00148659, 0.01
Time = 270

diagonal:  Solving for rho, Initial residual = 0, Final residual = 0, No Iterations 0

Execution time for mesh.update() = 0 s

DILUPBiCGStab:  Solving for Ux, Initial residual = 0.00512228, Final residual = 5.37497e-09, No Iterations 3
DILUPBiCGStab:  Solving for Uy, Initial residual = 0.00783935, Final residual = 8.68358e-09, No Iterations 3
GAMGPCG:  Solving for G, Initial residual = 0.17046, Final residual = 5.23064e-05, No Iterations 6
DILUPBiCGStab:  Solving for O2, Initial residual = 0.0028634, Final residual = 2.33531e-09, No Iterations 3
DILUPBiCGStab:  Solving for H2O, Initial residual = 0.00286339, Final residual = 2.33531e-09, No Iterations 3
DILUPBiCGStab:  Solving for CH4, Initial residual = 0, Final residual = 0, No Iterations 0
DILUPBiCGStab:  Solving for CO2, Initial residual = 0.00286339, Final residual = 2.33532e-09, No Iterations 3
DILUPBiCGStab:  Solving for h, Initial residual = 0.00333691, Final residual = 2.94134e-09, No Iterations 3
min/max(T) = 299.999, 1044.98
GAMGPCG:  Solving for p_rgh, Initial residual = 0.0236203, Final residual = 6.78754e-07, No Iterations 4
diagonal:  Solving for rho, Initial residual = 0, Final residual = 0, No Iterations 0
time step continuity errors : sum local = 3.96333e-08, global = -1.56717e-09, cumulative = -3.19485e-07
GAMGPCG:  Solving for p_rgh, Initial residual = 0.0026484, Final residual = 9.47934e-07, No Iterations 3
diagonal:  Solving for rho, Initial residual = 0, Final residual = 0, No Iterations 0
time step continuity errors : sum local = 5.43284e-08, global = -1.13681e-09, cumulative = -3.20621e-07
DILUPBiCGStab:  Solving for omega, Initial residual = 0.00010822, Final residual = 1.75989e-09, No Iterations 2
DILUPBiCGStab:  Solving for k, Initial residual = 0.00573667, Final residual = 1.83127e-09, No Iterations 3

ExecutionTime = 2.83 s  ClockTime = 3 s

    Overall     = 0.00150005, 0.01
Time = 271

diagonal:  Solving for rho, Initial residual = 0, Final residual = 0, No Iterations 0

Execution time for mesh.update() = 0 s

DILUPBiCGStab:  Solving for Ux, Initial residual = 0.00514379, Final residual = 4.63363e-09, No Iterations 3
DILUPBiCGStab:  Solving for Uy, Initial residual = 0.00784421, Final residual = 9.44275e-09, No Iterations 3
DILUPBiCGStab:  Solving for O2, Initial residual = 0.00286969, Final residual = 2.01675e-09, No Iterations 3
DILUPBiCGStab:  Solving for H2O, Initial residual = 0.00286969, Final residual = 2.01674e-09, No Iterations 3
DILUPBiCGStab:  Solving for CH4, Initial residual = 0, Final residual = 0, No Iterations 0
DILUPBiCGStab:  Solving for CO2, Initial residual = 0.00286969, Final residual = 2.01674e-09, No Iterations 3
DILUPBiCGStab:  Solving for h, Initial residual = 0.00335037, Final residual = 2.09635e-09, No Iterations 3
min/max(T) = 299.999, 1044.98
GAMGPCG:  Solving for p_rgh, Initial residual = 0.0229012, Final residual = 6.05897e-07, No Iterations 4
diagonal:  Solving for rho, Initial residual = 0, Final residual = 0, No Iterations 0
time step continuity errors : sum local = 3.51331e-08, global = 5.32335e-09, cumulative = -3.15298e-07
GAMGPCG:  Solving for p_rgh, Initial residual = 0.00270121, Final residual = 9.45092e-07, No Iterations 3
diagonal:  Solving for rho, Initial residual = 0, Final residual = 0, No Iterations 0
time step continuity errors : sum local = 5.34591e-08, global = 1.80809e-09, cumulative = -3.1349e-07
DILUPBiCGStab:  Solving for omega, Initial residual = 0.000108401, Final residual = 1.59059e-09, No Iterations 2
DILUPBiCGStab:  Solving for k, Initial residual = 0.00574182, Final residual = 8.36201e-09, No Iterations 3

ExecutionTime = 2.94 s  ClockTime = 3 s

    Overall     = 0.00151097, 0.01
Time = 272

diagonal:  Solving for rho, Initial residual = 0, Final residual = 0, No Iterations 0

Execution time for mesh.update() = 0 s

DILUPBiCGStab:  Solving for Ux, Initial residual = 0.00512607, Final residual = 4.59138e-09, No Iterations 3
DILUPBiCGStab:  Solving for Uy, Initial residual = 0.0078145, Final residual = 8.9315e-10, No Iterations 3
DILUPBiCGStab:  Solving for O2, Initial residual = 0.00287224, Final residual = 1.9473e-09, No Iterations 3
DILUPBiCGStab:  Solving for H2O, Initial residual = 0.00287224, Final residual = 1.94729e-09, No Iterations 3
DILUPBiCGStab:  Solving for CH4, Initial residual = 0, Final residual = 0, No Iterations 0
DILUPBiCGStab:  Solving for CO2, Initial residual = 0.00287224, Final residual = 1.94729e-09, No Iterations 3
DILUPBiCGStab:  Solving for h, Initial residual = 0.00335119, Final residual = 2.01186e-09, No Iterations 3
min/max(T) = 299.989, 1044.98
GAMGPCG:  Solving for p_rgh, Initial residual = 0.023858, Final residual = 5.15841e-07, No Iterations 4
diagonal:  Solving for rho, Initial residual = 0, Final residual = 0, No Iterations 0
time step continuity errors : sum local = 3.02647e-08, global = -1.67073e-09, cumulative = -3.15161e-07
GAMGPCG:  Solving for p_rgh, Initial residual = 0.00279879, Final residual = 1.26237e-07, No Iterations 4
diagonal:  Solving for rho, Initial residual = 0, Final residual = 0, No Iterations 0
time step continuity errors : sum local = 7.28311e-09, global = -4.55809e-10, cumulative = -3.15617e-07
DILUPBiCGStab:  Solving for omega, Initial residual = 0.000108545, Final residual = 1.51861e-09, No Iterations 2
DILUPBiCGStab:  Solving for k, Initial residual = 0.00575173, Final residual = 9.59205e-09, No Iterations 3

ExecutionTime = 3.06 s  ClockTime = 3 s

    Overall     = 0.00152717, 0.01
Time = 273

diagonal:  Solving for rho, Initial residual = 0, Final residual = 0, No Iterations 0

Execution time for mesh.update() = 0 s

DILUPBiCGStab:  Solving for Ux, Initial residual = 0.00516247, Final residual = 4.64238e-09, No Iterations 3
DILUPBiCGStab:  Solving for Uy, Initial residual = 0.00785497, Final residual = 9.46969e-09, No Iterations 3
DILUPBiCGStab:  Solving for O2, Initial residual = 0.00288645, Final residual = 2.18177e-09, No Iterations 3
DILUPBiCGStab:  Solving for H2O, Initial residual = 0.00288646, Final residual = 2.18176e-09, No Iterations 3
DILUPBiCGStab:  Solving for CH4, Initial residual = 0, Final residual = 0, No Iterations 0
DILUPBiCGStab:  Solving for CO2, Initial residual = 0.00288646, Final residual = 2.18176e-09, No Iterations 3
DILUPBiCGStab:  Solving for h, Initial residual = 0.00337948, Final residual = 2.11892e-09, No Iterations 3
min/max(T) = 299.989, 1044.98
GAMGPCG:  Solving for p_rgh, Initial residual = 0.0237351, Final residual = 6.42983e-07, No Iterations 4
diagonal:  Solving for rho, Initial residual = 0, Final residual = 0, No Iterations 0
time step continuity errors : sum local = 3.75096e-08, global = 6.96141e-09, cumulative = -3.08655e-07
GAMGPCG:  Solving for p_rgh, Initial residual = 0.00275024, Final residual = 8.36382e-07, No Iterations 3
diagonal:  Solving for rho, Initial residual = 0, Final residual = 0, No Iterations 0
time step continuity errors : sum local = 4.65323e-08, global = -1.32569e-09, cumulative = -3.09981e-07
DILUPBiCGStab:  Solving for omega, Initial residual = 0.00011033, Final residual = 1.60351e-09, No Iterations 2
DILUPBiCGStab:  Solving for k, Initial residual = 0.00576267, Final residual = 1.17633e-09, No Iterations 3

ExecutionTime = 3.18 s  ClockTime = 3 s

    Overall     = 0.00153704, 0.01
Time = 274

diagonal:  Solving for rho, Initial residual = 0, Final residual = 0, No Iterations 0

Execution time for mesh.update() = 0 s

DILUPBiCGStab:  Solving for Ux, Initial residual = 0.00513646, Final residual = 5.01615e-09, No Iterations 3
DILUPBiCGStab:  Solving for Uy, Initial residual = 0.00782223, Final residual = 8.5206e-09, No Iterations 3
DILUPBiCGStab:  Solving for O2, Initial residual = 0.00288771, Final residual = 2.1703e-09, No Iterations 3
DILUPBiCGStab:  Solving for H2O, Initial residual = 0.00288772, Final residual = 2.1703e-09, No Iterations 3
DILUPBiCGStab:  Solving for CH4, Initial residual = 0, Final residual = 0, No Iterations 0
DILUPBiCGStab:  Solving for CO2, Initial residual = 0.00288772, Final residual = 2.1703e-09, No Iterations 3
DILUPBiCGStab:  Solving for h, Initial residual = 0.00337054, Final residual = 2.06774e-09, No Iterations 3
min/max(T) = 299.977, 1044.98
GAMGPCG:  Solving for p_rgh, Initial residual = 0.0237457, Final residual = 4.80427e-07, No Iterations 4
diagonal:  Solving for rho, Initial residual = 0, Final residual = 0, No Iterations 0
time step continuity errors : sum local = 2.83561e-08, global = 1.50891e-09, cumulative = -3.08472e-07
GAMGPCG:  Solving for p_rgh, Initial residual = 0.00268809, Final residual = 1.37165e-07, No Iterations 4
diagonal:  Solving for rho, Initial residual = 0, Final residual = 0, No Iterations 0
time step continuity errors : sum local = 7.97253e-09, global = 4.86046e-11, cumulative = -3.08423e-07
DILUPBiCGStab:  Solving for omega, Initial residual = 0.000109918, Final residual = 1.65177e-09, No Iterations 2
DILUPBiCGStab:  Solving for k, Initial residual = 0.00576051, Final residual = 9.60974e-09, No Iterations 3

ExecutionTime = 3.29 s  ClockTime = 3 s

    Overall     = 0.00155578, 0.01
Time = 275

diagonal:  Solving for rho, Initial residual = 0, Final residual = 0, No Iterations 0

Execution time for mesh.update() = 0 s

DILUPBiCGStab:  Solving for Ux, Initial residual = 0.00516496, Final residual = 4.99603e-09, No Iterations 3
DILUPBiCGStab:  Solving for Uy, Initial residual = 0.00780772, Final residual = 8.75934e-09, No Iterations 3
DILUPBiCGStab:  Solving for O2, Initial residual = 0.00290116, Final residual = 2.27139e-09, No Iterations 3
DILUPBiCGStab:  Solving for H2O, Initial residual = 0.00290117, Final residual = 2.27139e-09, No Iterations 3
DILUPBiCGStab:  Solving for CH4, Initial residual = 0, Final residual = 0, No Iterations 0
DILUPBiCGStab:  Solving for CO2, Initial residual = 0.00290118, Final residual = 2.27139e-09, No Iterations 3
DILUPBiCGStab:  Solving for h, Initial residual = 0.00338287, Final residual = 2.24274e-09, No Iterations 3
min/max(T) = 299.977, 1044.98
GAMGPCG:  Solving for p_rgh, Initial residual = 0.0240834, Final residual = 6.39662e-07, No Iterations 4
diagonal:  Solving for rho, Initial residual = 0, Final residual = 0, No Iterations 0
time step continuity errors : sum local = 3.70939e-08, global = 6.1943e-09, cumulative = -3.02229e-07
GAMGPCG:  Solving for p_rgh, Initial residual = 0.00278559, Final residual = 8.47697e-07, No Iterations 3
diagonal:  Solving for rho, Initial residual = 0, Final residual = 0, No Iterations 0
time step continuity errors : sum local = 4.76699e-08, global = -1.25381e-09, cumulative = -3.03483e-07
DILUPBiCGStab:  Solving for omega, Initial residual = 0.000110382, Final residual = 1.75047e-09, No Iterations 2
DILUPBiCGStab:  Solving for k, Initial residual = 0.00577975, Final residual = 8.59135e-09, No Iterations 3

ExecutionTime = 3.41 s  ClockTime = 4 s

    Overall     = 0.00156647, 0.01
Time = 276

diagonal:  Solving for rho, Initial residual = 0, Final residual = 0, No Iterations 0

Execution time for mesh.update() = 0 s

DILUPBiCGStab:  Solving for Ux, Initial residual = 0.00517513, Final residual = 5.05739e-09, No Iterations 3
DILUPBiCGStab:  Solving for Uy, Initial residual = 0.00780287, Final residual = 7.62909e-09, No Iterations 3
DILUPBiCGStab:  Solving for O2, Initial residual = 0.00288145, Final residual = 2.70595e-09, No Iterations 3
DILUPBiCGStab:  Solving for H2O, Initial residual = 0.00288147, Final residual = 2.70597e-09, No Iterations 3
DILUPBiCGStab:  Solving for CH4, Initial residual = 0, Final residual = 0, No Iterations 0
DILUPBiCGStab:  Solving for CO2, Initial residual = 0.00288147, Final residual = 2.70597e-09, No Iterations 3
DILUPBiCGStab:  Solving for h, Initial residual = 0.00336295, Final residual = 2.58222e-09, No Iterations 3
min/max(T) = 299.961, 1044.98
GAMGPCG:  Solving for p_rgh, Initial residual = 0.0241164, Final residual = 3.81028e-07, No Iterations 4
diagonal:  Solving for rho, Initial residual = 0, Final residual = 0, No Iterations 0
time step continuity errors : sum local = 2.22937e-08, global = 2.32388e-09, cumulative = -3.01159e-07
GAMGPCG:  Solving for p_rgh, Initial residual = 0.00281845, Final residual = 8.25378e-07, No Iterations 3
diagonal:  Solving for rho, Initial residual = 0, Final residual = 0, No Iterations 0
time step continuity errors : sum local = 4.71184e-08, global = 5.6731e-10, cumulative = -3.00592e-07
DILUPBiCGStab:  Solving for omega, Initial residual = 0.000111422, Final residual = 1.77138e-09, No Iterations 2
DILUPBiCGStab:  Solving for k, Initial residual = 0.00577943, Final residual = 4.25396e-09, No Iterations 3

ExecutionTime = 3.52 s  ClockTime = 4 s

    Overall     = 0.00158615, 0.01
Time = 277

diagonal:  Solving for rho, Initial residual = 0, Final residual = 0, No Iterations 0

Execution time for mesh.update() = 0 s

DILUPBiCGStab:  Solving for Ux, Initial residual = 0.00519407, Final residual = 4.92668e-09, No Iterations 3
DILUPBiCGStab:  Solving for Uy, Initial residual = 0.00777029, Final residual = 6.68469e-09, No Iterations 3
DILUPBiCGStab:  Solving for O2, Initial residual = 0.00288903, Final residual = 3.11776e-09, No Iterations 3
DILUPBiCGStab:  Solving for H2O, Initial residual = 0.00288906, Final residual = 3.11784e-09, No Iterations 3
DILUPBiCGStab:  Solving for CH4, Initial residual = 0, Final residual = 0, No Iterations 0
DILUPBiCGStab:  Solving for CO2, Initial residual = 0.00288906, Final residual = 3.11784e-09, No Iterations 3
DILUPBiCGStab:  Solving for h, Initial residual = 0.00337888, Final residual = 2.95206e-09, No Iterations 3
min/max(T) = 299.962, 1044.98
GAMGPCG:  Solving for p_rgh, Initial residual = 0.0238265, Final residual = 5.29232e-07, No Iterations 4
diagonal:  Solving for rho, Initial residual = 0, Final residual = 0, No Iterations 0
time step continuity errors : sum local = 3.049e-08, global = 3.90781e-09, cumulative = -2.96684e-07
GAMGPCG:  Solving for p_rgh, Initial residual = 0.00279514, Final residual = 9.44135e-07, No Iterations 3
diagonal:  Solving for rho, Initial residual = 0, Final residual = 0, No Iterations 0
time step continuity errors : sum local = 5.36353e-08, global = 1.35932e-09, cumulative = -2.95324e-07
DILUPBiCGStab:  Solving for omega, Initial residual = 0.000110391, Final residual = 1.89476e-09, No Iterations 2
DILUPBiCGStab:  Solving for k, Initial residual = 0.00579515, Final residual = 5.16852e-09, No Iterations 3

ExecutionTime = 3.63 s  ClockTime = 4 s

    Overall     = 0.00159785, 0.01
Time = 278

diagonal:  Solving for rho, Initial residual = 0, Final residual = 0, No Iterations 0

Execution time for mesh.update() = 0 s

DILUPBiCGStab:  Solving for Ux, Initial residual = 0.00520127, Final residual = 4.64651e-09, No Iterations 3
DILUPBiCGStab:  Solving for Uy, Initial residual = 0.00775297, Final residual = 6.27076e-09, No Iterations 3
DILUPBiCGStab:  Solving for O2, Initial residual = 0.00288636, Final residual = 3.31122e-09, No Iterations 3
DILUPBiCGStab:  Solving for H2O, Initial residual = 0.00288639, Final residual = 3.31133e-09, No Iterations 3
DILUPBiCGStab:  Solving for CH4, Initial residual = 0, Final residual = 0, No Iterations 0
DILUPBiCGStab:  Solving for CO2, Initial residual = 0.00288639, Final residual = 3.31133e-09, No Iterations 3
DILUPBiCGStab:  Solving for h, Initial residual = 0.00336748, Final residual = 3.18304e-09, No Iterations 3
min/max(T) = 299.94, 1044.98
GAMGPCG:  Solving for p_rgh, Initial residual = 0.0239458, Final residual = 4.40808e-07, No Iterations 4
diagonal:  Solving for rho, Initial residual = 0, Final residual = 0, No Iterations 0
time step continuity errors : sum local = 2.56214e-08, global = -2.24945e-09, cumulative = -2.97574e-07
GAMGPCG:  Solving for p_rgh, Initial residual = 0.0028482, Final residual = 8.35807e-07, No Iterations 3
diagonal:  Solving for rho, Initial residual = 0, Final residual = 0, No Iterations 0
time step continuity errors : sum local = 4.70337e-08, global = 4.15417e-10, cumulative = -2.97159e-07
DILUPBiCGStab:  Solving for omega, Initial residual = 0.000109897, Final residual = 1.90383e-09, No Iterations 2
DILUPBiCGStab:  Solving for k, Initial residual = 0.00579205, Final residual = 4.4305e-09, No Iterations 3

ExecutionTime = 3.74 s  ClockTime = 4 s

    Overall     = 0.00161864, 0.01
Time = 279

diagonal:  Solving for rho, Initial residual = 0, Final residual = 0, No Iterations 0

Execution time for mesh.update() = 0 s

DILUPBiCGStab:  Solving for Ux, Initial residual = 0.00520542, Final residual = 4.90407e-09, No Iterations 3
DILUPBiCGStab:  Solving for Uy, Initial residual = 0.00773712, Final residual = 6.2982e-09, No Iterations 3
DILUPBiCGStab:  Solving for O2, Initial residual = 0.00288737, Final residual = 3.33492e-09, No Iterations 3
DILUPBiCGStab:  Solving for H2O, Initial residual = 0.00288741, Final residual = 3.33522e-09, No Iterations 3
DILUPBiCGStab:  Solving for CH4, Initial residual = 0, Final residual = 0, No Iterations 0
DILUPBiCGStab:  Solving for CO2, Initial residual = 0.00288741, Final residual = 3.33522e-09, No Iterations 3
DILUPBiCGStab:  Solving for h, Initial residual = 0.00337248, Final residual = 3.29171e-09, No Iterations 3
min/max(T) = 299.946, 1044.98
GAMGPCG:  Solving for p_rgh, Initial residual = 0.0234736, Final residual = 5.7868e-07, No Iterations 4
diagonal:  Solving for rho, Initial residual = 0, Final residual = 0, No Iterations 0
time step continuity errors : sum local = 3.30884e-08, global = 1.92487e-09, cumulative = -2.95234e-07
GAMGPCG:  Solving for p_rgh, Initial residual = 0.00273514, Final residual = 8.37744e-07, No Iterations 3
diagonal:  Solving for rho, Initial residual = 0, Final residual = 0, No Iterations 0
time step continuity errors : sum local = 4.60682e-08, global = 7.53838e-11, cumulative = -2.95158e-07
DILUPBiCGStab:  Solving for omega, Initial residual = 0.000111742, Final residual = 2.00415e-09, No Iterations 2
DILUPBiCGStab:  Solving for k, Initial residual = 0.00579593, Final residual = 3.97019e-09, No Iterations 3

ExecutionTime = 3.86 s  ClockTime = 4 s

    Overall     = 0.00163262, 0.01
Time = 280

diagonal:  Solving for rho, Initial residual = 0, Final residual = 0, No Iterations 0

Execution time for mesh.update() = 0 s

DILUPBiCGStab:  Solving for Ux, Initial residual = 0.00520805, Final residual = 5.23715e-09, No Iterations 3
DILUPBiCGStab:  Solving for Uy, Initial residual = 0.00770931, Final residual = 6.24727e-09, No Iterations 3
GAMGPCG:  Solving for G, Initial residual = 0.197999, Final residual = 7.75208e-05, No Iterations 6
DILUPBiCGStab:  Solving for O2, Initial residual = 0.00288736, Final residual = 3.69175e-09, No Iterations 3
DILUPBiCGStab:  Solving for H2O, Initial residual = 0.0028874, Final residual = 3.69209e-09, No Iterations 3
DILUPBiCGStab:  Solving for CH4, Initial residual = 0, Final residual = 0, No Iterations 0
DILUPBiCGStab:  Solving for CO2, Initial residual = 0.0028874, Final residual = 3.69209e-09, No Iterations 3
DILUPBiCGStab:  Solving for h, Initial residual = 0.00337099, Final residual = 3.88741e-09, No Iterations 3
min/max(T) = 299.912, 1044.98
GAMGPCG:  Solving for p_rgh, Initial residual = 0.0238949, Final residual = 4.16258e-07, No Iterations 4
diagonal:  Solving for rho, Initial residual = 0, Final residual = 0, No Iterations 0
time step continuity errors : sum local = 2.42302e-08, global = -3.60164e-09, cumulative = -2.9876e-07
GAMGPCG:  Solving for p_rgh, Initial residual = 0.00272548, Final residual = 8.83165e-07, No Iterations 3
diagonal:  Solving for rho, Initial residual = 0, Final residual = 0, No Iterations 0
time step continuity errors : sum local = 4.85067e-08, global = -5.38855e-11, cumulative = -2.98814e-07
DILUPBiCGStab:  Solving for omega, Initial residual = 0.000112211, Final residual = 1.97757e-09, No Iterations 2
DILUPBiCGStab:  Solving for k, Initial residual = 0.00579362, Final residual = 3.80786e-09, No Iterations 3

ExecutionTime = 4.1 s  ClockTime = 4 s

    Overall     = 0.0016563, 0.01
Time = 281

diagonal:  Solving for rho, Initial residual = 0, Final residual = 0, No Iterations 0

Execution time for mesh.update() = 0 s

DILUPBiCGStab:  Solving for Ux, Initial residual = 0.00521443, Final residual = 4.87522e-09, No Iterations 3
DILUPBiCGStab:  Solving for Uy, Initial residual = 0.00764745, Final residual = 6.38628e-09, No Iterations 3
DILUPBiCGStab:  Solving for O2, Initial residual = 0.00289146, Final residual = 3.38552e-09, No Iterations 3
DILUPBiCGStab:  Solving for H2O, Initial residual = 0.0028915, Final residual = 3.38616e-09, No Iterations 3
DILUPBiCGStab:  Solving for CH4, Initial residual = 0, Final residual = 0, No Iterations 0
DILUPBiCGStab:  Solving for CO2, Initial residual = 0.0028915, Final residual = 3.38616e-09, No Iterations 3
DILUPBiCGStab:  Solving for h, Initial residual = 0.00338026, Final residual = 4.01073e-09, No Iterations 3
min/max(T) = 299.924, 1044.98
GAMGPCG:  Solving for p_rgh, Initial residual = 0.0229191, Final residual = 5.55304e-07, No Iterations 4
diagonal:  Solving for rho, Initial residual = 0, Final residual = 0, No Iterations 0
time step continuity errors : sum local = 3.18914e-08, global = -2.04854e-09, cumulative = -3.00862e-07
GAMGPCG:  Solving for p_rgh, Initial residual = 0.00285418, Final residual = 7.6484e-07, No Iterations 3
diagonal:  Solving for rho, Initial residual = 0, Final residual = 0, No Iterations 0
time step continuity errors : sum local = 4.25556e-08, global = 9.53171e-10, cumulative = -2.99909e-07
DILUPBiCGStab:  Solving for omega, Initial residual = 0.000111862, Final residual = 1.93042e-09, No Iterations 2
DILUPBiCGStab:  Solving for k, Initial residual = 0.00579804, Final residual = 4.13695e-09, No Iterations 3

ExecutionTime = 4.21 s  ClockTime = 4 s

    Overall     = 0.00167065, 0.01
Time = 282

diagonal:  Solving for rho, Initial residual = 0, Final residual = 0, No Iterations 0

Execution time for mesh.update() = 0 s

DILUPBiCGStab:  Solving for Ux, Initial residual = 0.00520802, Final residual = 4.93874e-09, No Iterations 3
DILUPBiCGStab:  Solving for Uy, Initial residual = 0.00760105, Final residual = 6.27051e-09, No Iterations 3
DILUPBiCGStab:  Solving for O2, Initial residual = 0.00289297, Final residual = 3.99011e-09, No Iterations 3
DILUPBiCGStab:  Solving for H2O, Initial residual = 0.00289302, Final residual = 3.99045e-09, No Iterations 3
DILUPBiCGStab:  Solving for CH4, Initial residual = 0, Final residual = 0, No Iterations 0
DILUPBiCGStab:  Solving for CO2, Initial residual = 0.00289302, Final residual = 3.99045e-09, No Iterations 3
DILUPBiCGStab:  Solving for h, Initial residual = 0.00338087, Final residual = 4.80332e-09, No Iterations 3
min/max(T) = 299.873, 1044.98
GAMGPCG:  Solving for p_rgh, Initial residual = 0.0236253, Final residual = 4.98881e-07, No Iterations 4
diagonal:  Solving for rho, Initial residual = 0, Final residual = 0, No Iterations 0
time step continuity errors : sum local = 2.84664e-08, global = -2.51861e-09, cumulative = -3.02428e-07
GAMGPCG:  Solving for p_rgh, Initial residual = 0.00281386, Final residual = 6.98509e-07, No Iterations 3
diagonal:  Solving for rho, Initial residual = 0, Final residual = 0, No Iterations 0
time step continuity errors : sum local = 3.91477e-08, global = 1.64954e-10, cumulative = -3.02263e-07
DILUPBiCGStab:  Solving for omega, Initial residual = 0.000111863, Final residual = 1.83593e-09, No Iterations 2
DILUPBiCGStab:  Solving for k, Initial residual = 0.00580358, Final residual = 4.76374e-09, No Iterations 3

ExecutionTime = 4.33 s  ClockTime = 4 s

    Overall     = 0.00169522, 0.01
Time = 283

diagonal:  Solving for rho, Initial residual = 0, Final residual = 0, No Iterations 0

Execution time for mesh.update() = 0 s

DILUPBiCGStab:  Solving for Ux, Initial residual = 0.00523988, Final residual = 5.40363e-09, No Iterations 3
DILUPBiCGStab:  Solving for Uy, Initial residual = 0.00761162, Final residual = 6.62442e-09, No Iterations 3
DILUPBiCGStab:  Solving for O2, Initial residual = 0.00288476, Final residual = 3.31849e-09, No Iterations 3
DILUPBiCGStab:  Solving for H2O, Initial residual = 0.00288482, Final residual = 3.31892e-09, No Iterations 3
DILUPBiCGStab:  Solving for CH4, Initial residual = 0, Final residual = 0, No Iterations 0
DILUPBiCGStab:  Solving for CO2, Initial residual = 0.00288482, Final residual = 3.31892e-09, No Iterations 3
DILUPBiCGStab:  Solving for h, Initial residual = 0.00337939, Final residual = 4.01569e-09, No Iterations 3
min/max(T) = 299.891, 1044.98
GAMGPCG:  Solving for p_rgh, Initial residual = 0.0233924, Final residual = 4.6659e-07, No Iterations 4
diagonal:  Solving for rho, Initial residual = 0, Final residual = 0, No Iterations 0
time step continuity errors : sum local = 2.65367e-08, global = -2.91131e-09, cumulative = -3.05174e-07
GAMGPCG:  Solving for p_rgh, Initial residual = 0.00288284, Final residual = 8.84106e-07, No Iterations 3
diagonal:  Solving for rho, Initial residual = 0, Final residual = 0, No Iterations 0
time step continuity errors : sum local = 4.90792e-08, global = 4.80171e-09, cumulative = -3.00372e-07
DILUPBiCGStab:  Solving for omega, Initial residual = 0.000111616, Final residual = 1.75245e-09, No Iterations 2
DILUPBiCGStab:  Solving for k, Initial residual = 0.00581909, Final residual = 5.74404e-09, No Iterations 3

ExecutionTime = 4.44 s  ClockTime = 5 s

    Overall     = 0.00171181, 0.01
Time = 284

diagonal:  Solving for rho, Initial residual = 0, Final residual = 0, No Iterations 0

Execution time for mesh.update() = 0 s

DILUPBiCGStab:  Solving for Ux, Initial residual = 0.00519612, Final residual = 5.40266e-09, No Iterations 3
DILUPBiCGStab:  Solving for Uy, Initial residual = 0.00755161, Final residual = 6.65883e-09, No Iterations 3
DILUPBiCGStab:  Solving for O2, Initial residual = 0.00288152, Final residual = 4.10248e-09, No Iterations 3
DILUPBiCGStab:  Solving for H2O, Initial residual = 0.0028816, Final residual = 4.10285e-09, No Iterations 3
DILUPBiCGStab:  Solving for CH4, Initial residual = 0, Final residual = 0, No Iterations 0
DILUPBiCGStab:  Solving for CO2, Initial residual = 0.0028816, Final residual = 4.10285e-09, No Iterations 3
DILUPBiCGStab:  Solving for h, Initial residual = 0.00337213, Final residual = 3.97254e-09, No Iterations 3
min/max(T) = 299.806, 1044.98
GAMGPCG:  Solving for p_rgh, Initial residual = 0.0224913, Final residual = 5.80434e-07, No Iterations 4
diagonal:  Solving for rho, Initial residual = 0, Final residual = 0, No Iterations 0
time step continuity errors : sum local = 3.3271e-08, global = -4.20442e-09, cumulative = -3.04577e-07
GAMGPCG:  Solving for p_rgh, Initial residual = 0.00291056, Final residual = 7.01491e-07, No Iterations 3
diagonal:  Solving for rho, Initial residual = 0, Final residual = 0, No Iterations 0
time step continuity errors : sum local = 3.95663e-08, global = -4.41836e-10, cumulative = -3.05019e-07
DILUPBiCGStab:  Solving for omega, Initial residual = 0.000112173, Final residual = 1.61684e-09, No Iterations 2
DILUPBiCGStab:  Solving for k, Initial residual = 0.00582591, Final residual = 6.92751e-09, No Iterations 3

ExecutionTime = 4.55 s  ClockTime = 5 s

    Overall     = 0.00173699, 0.01
Time = 285

diagonal:  Solving for rho, Initial residual = 0, Final residual = 0, No Iterations 0

Execution time for mesh.update() = 0 s

DILUPBiCGStab:  Solving for Ux, Initial residual = 0.00518931, Final residual = 5.30577e-09, No Iterations 3
DILUPBiCGStab:  Solving for Uy, Initial residual = 0.00753788, Final residual = 6.53187e-09, No Iterations 3
DILUPBiCGStab:  Solving for O2, Initial residual = 0.00288559, Final residual = 3.2585e-09, No Iterations 3
DILUPBiCGStab:  Solving for H2O, Initial residual = 0.00288567, Final residual = 3.25923e-09, No Iterations 3
DILUPBiCGStab:  Solving for CH4, Initial residual = 0, Final residual = 0, No Iterations 0
DILUPBiCGStab:  Solving for CO2, Initial residual = 0.00288567, Final residual = 3.25923e-09, No Iterations 3
DILUPBiCGStab:  Solving for h, Initial residual = 0.00339093, Final residual = 3.41786e-09, No Iterations 3
min/max(T) = 299.742, 1044.98
GAMGPCG:  Solving for p_rgh, Initial residual = 0.0233423, Final residual = 4.51527e-07, No Iterations 4
diagonal:  Solving for rho, Initial residual = 0, Final residual = 0, No Iterations 0
time step continuity errors : sum local = 2.56625e-08, global = -2.77757e-09, cumulative = -3.07796e-07
GAMGPCG:  Solving for p_rgh, Initial residual = 0.00294165, Final residual = 6.59073e-07, No Iterations 3
diagonal:  Solving for rho, Initial residual = 0, Final residual = 0, No Iterations 0
time step continuity errors : sum local = 3.73023e-08, global = -9.23747e-10, cumulative = -3.0872e-07
DILUPBiCGStab:  Solving for omega, Initial residual = 0.000111789, Final residual = 1.69088e-09, No Iterations 2
DILUPBiCGStab:  Solving for k, Initial residual = 0.0058474, Final residual = 7.44937e-09, No Iterations 3

ExecutionTime = 4.66 s  ClockTime = 5 s

    Overall     = 0.00175513, 0.01
Time = 286

diagonal:  Solving for rho, Initial residual = 0, Final residual = 0, No Iterations 0

Execution time for mesh.update() = 0 s

DILUPBiCGStab:  Solving for Ux, Initial residual = 0.00520718, Final residual = 5.46098e-09, No Iterations 3
DILUPBiCGStab:  Solving for Uy, Initial residual = 0.00750824, Final residual = 6.8686e-09, No Iterations 3
DILUPBiCGStab:  Solving for O2, Initial residual = 0.00287609, Final residual = 2.94707e-09, No Iterations 3
DILUPBiCGStab:  Solving for H2O, Initial residual = 0.00287619, Final residual = 2.94744e-09, No Iterations 3
DILUPBiCGStab:  Solving for CH4, Initial residual = 0, Final residual = 0, No Iterations 0
DILUPBiCGStab:  Solving for CO2, Initial residual = 0.00287619, Final residual = 2.94744e-09, No Iterations 3
DILUPBiCGStab:  Solving for h, Initial residual = 0.00337441, Final residual = 3.16027e-09, No Iterations 3
min/max(T) = 299.696, 1044.98
GAMGPCG:  Solving for p_rgh, Initial residual = 0.0226917, Final residual = 4.43052e-07, No Iterations 4
diagonal:  Solving for rho, Initial residual = 0, Final residual = 0, No Iterations 0
time step continuity errors : sum local = 2.49356e-08, global = -4.40003e-09, cumulative = -3.1312e-07
GAMGPCG:  Solving for p_rgh, Initial residual = 0.00301631, Final residual = 8.46355e-07, No Iterations 3
diagonal:  Solving for rho, Initial residual = 0, Final residual = 0, No Iterations 0
time step continuity errors : sum local = 4.68604e-08, global = 5.29664e-10, cumulative = -3.1259e-07
DILUPBiCGStab:  Solving for omega, Initial residual = 0.000111079, Final residual = 1.55879e-09, No Iterations 2
DILUPBiCGStab:  Solving for k, Initial residual = 0.00586659, Final residual = 6.32934e-09, No Iterations 3

ExecutionTime = 4.77 s  ClockTime = 5 s

    Overall     = 0.00178087, 0.01
Time = 287

diagonal:  Solving for rho, Initial residual = 0, Final residual = 0, No Iterations 0

Execution time for mesh.update() = 0 s

DILUPBiCGStab:  Solving for Ux, Initial residual = 0.00517821, Final residual = 4.65218e-09, No Iterations 3
DILUPBiCGStab:  Solving for Uy, Initial residual = 0.00744066, Final residual = 7.5231e-09, No Iterations 3
DILUPBiCGStab:  Solving for O2, Initial residual = 0.00288903, Final residual = 2.60143e-09, No Iterations 3
DILUPBiCGStab:  Solving for H2O, Initial residual = 0.0028891, Final residual = 2.60183e-09, No Iterations 3
DILUPBiCGStab:  Solving for CH4, Initial residual = 0, Final residual = 0, No Iterations 0
DILUPBiCGStab:  Solving for CO2, Initial residual = 0.0028891, Final residual = 2.60183e-09, No Iterations 3
DILUPBiCGStab:  Solving for h, Initial residual = 0.00340023, Final residual = 2.83213e-09, No Iterations 3
min/max(T) = 299.678, 1044.98
GAMGPCG:  Solving for p_rgh, Initial residual = 0.0230962, Final residual = 5.05854e-07, No Iterations 4
diagonal:  Solving for rho, Initial residual = 0, Final residual = 0, No Iterations 0
time step continuity errors : sum local = 2.8711e-08, global = -3.29199e-09, cumulative = -3.15882e-07
GAMGPCG:  Solving for p_rgh, Initial residual = 0.00292967, Final residual = 7.20378e-07, No Iterations 3
diagonal:  Solving for rho, Initial residual = 0, Final residual = 0, No Iterations 0
time step continuity errors : sum local = 4.03396e-08, global = 1.86341e-09, cumulative = -3.14019e-07
DILUPBiCGStab:  Solving for omega, Initial residual = 0.000111899, Final residual = 1.54353e-09, No Iterations 2
DILUPBiCGStab:  Solving for k, Initial residual = 0.00588594, Final residual = 4.36449e-09, No Iterations 3

ExecutionTime = 4.89 s  ClockTime = 5 s

    Overall     = 0.0017668, 0.01
Time = 288

diagonal:  Solving for rho, Initial residual = 0, Final residual = 0, No Iterations 0

Execution time for mesh.update() = 0 s

DILUPBiCGStab:  Solving for Ux, Initial residual = 0.00519895, Final residual = 4.71436e-09, No Iterations 3
DILUPBiCGStab:  Solving for Uy, Initial residual = 0.00741232, Final residual = 7.55752e-09, No Iterations 3
DILUPBiCGStab:  Solving for O2, Initial residual = 0.00287841, Final residual = 2.40744e-09, No Iterations 3
DILUPBiCGStab:  Solving for H2O, Initial residual = 0.00287854, Final residual = 2.40761e-09, No Iterations 3
DILUPBiCGStab:  Solving for CH4, Initial residual = 0, Final residual = 0, No Iterations 0
DILUPBiCGStab:  Solving for CO2, Initial residual = 0.00287854, Final residual = 2.40762e-09, No Iterations 3
DILUPBiCGStab:  Solving for h, Initial residual = 0.00339399, Final residual = 2.59423e-09, No Iterations 3
min/max(T) = 299.68, 1044.98
GAMGPCG:  Solving for p_rgh, Initial residual = 0.0224395, Final residual = 4.44089e-07, No Iterations 4
diagonal:  Solving for rho, Initial residual = 0, Final residual = 0, No Iterations 0
time step continuity errors : sum local = 2.55534e-08, global = -4.46646e-09, cumulative = -3.18485e-07
GAMGPCG:  Solving for p_rgh, Initial residual = 0.00301943, Final residual = 6.99814e-07, No Iterations 3
diagonal:  Solving for rho, Initial residual = 0, Final residual = 0, No Iterations 0
time step continuity errors : sum local = 3.90107e-08, global = -2.68983e-09, cumulative = -3.21175e-07
DILUPBiCGStab:  Solving for omega, Initial residual = 0.000112345, Final residual = 1.48774e-09, No Iterations 2
DILUPBiCGStab:  Solving for k, Initial residual = 0.00590493, Final residual = 3.69846e-09, No Iterations 3

ExecutionTime = 5 s  ClockTime = 5 s

    Overall     = 0.00172278, 0.01
Time = 289

diagonal:  Solving for rho, Initial residual = 0, Final residual = 0, No Iterations 0

Execution time for mesh.update() = 0 s

DILUPBiCGStab:  Solving for Ux, Initial residual = 0.0051828, Final residual = 4.51397e-09, No Iterations 3
DILUPBiCGStab:  Solving for Uy, Initial residual = 0.0073411, Final residual = 7.38882e-09, No Iterations 3
DILUPBiCGStab:  Solving for O2, Initial residual = 0.00288035, Final residual = 2.48703e-09, No Iterations 3
DILUPBiCGStab:  Solving for H2O, Initial residual = 0.00288042, Final residual = 2.48738e-09, No Iterations 3
DILUPBiCGStab:  Solving for CH4, Initial residual = 0, Final residual = 0, No Iterations 0
DILUPBiCGStab:  Solving for CO2, Initial residual = 0.00288042, Final residual = 2.48738e-09, No Iterations 3
DILUPBiCGStab:  Solving for h, Initial residual = 0.0033993, Final residual = 2.60904e-09, No Iterations 3
min/max(T) = 299.703, 1044.98
GAMGPCG:  Solving for p_rgh, Initial residual = 0.0215631, Final residual = 4.70556e-07, No Iterations 4
diagonal:  Solving for rho, Initial residual = 0, Final residual = 0, No Iterations 0
time step continuity errors : sum local = 2.77862e-08, global = -1.79102e-11, cumulative = -3.21193e-07
GAMGPCG:  Solving for p_rgh, Initial residual = 0.00289296, Final residual = 8.32359e-07, No Iterations 3
diagonal:  Solving for rho, Initial residual = 0, Final residual = 0, No Iterations 0
time step continuity errors : sum local = 4.63584e-08, global = -2.42248e-09, cumulative = -3.23616e-07
DILUPBiCGStab:  Solving for omega, Initial residual = 0.00011094, Final residual = 1.50569e-09, No Iterations 2
DILUPBiCGStab:  Solving for k, Initial residual = 0.00592041, Final residual = 3.69076e-09, No Iterations 3

ExecutionTime = 5.11 s  ClockTime = 5 s

    Overall     = 0.00168416, 0.01
Time = 290

diagonal:  Solving for rho, Initial residual = 0, Final residual = 0, No Iterations 0

Execution time for mesh.update() = 0 s

DILUPBiCGStab:  Solving for Ux, Initial residual = 0.00514033, Final residual = 4.49131e-09, No Iterations 3
DILUPBiCGStab:  Solving for Uy, Initial residual = 0.00725104, Final residual = 7.14473e-09, No Iterations 3
GAMGPCG:  Solving for G, Initial residual = 0.224645, Final residual = 4.28512e-05, No Iterations 6
DILUPBiCGStab:  Solving for O2, Initial residual = 0.0028833, Final residual = 2.39134e-09, No Iterations 3
DILUPBiCGStab:  Solving for H2O, Initial residual = 0.00288346, Final residual = 2.39146e-09, No Iterations 3
DILUPBiCGStab:  Solving for CH4, Initial residual = 0, Final residual = 0, No Iterations 0
DILUPBiCGStab:  Solving for CO2, Initial residual = 0.00288346, Final residual = 2.39146e-09, No Iterations 3
DILUPBiCGStab:  Solving for h, Initial residual = 0.00340693, Final residual = 2.56714e-09, No Iterations 3
min/max(T) = 299.649, 1044.98
GAMGPCG:  Solving for p_rgh, Initial residual = 0.0214188, Final residual = 5.18122e-07, No Iterations 4
diagonal:  Solving for rho, Initial residual = 0, Final residual = 0, No Iterations 0
time step continuity errors : sum local = 3.00467e-08, global = -1.28238e-09, cumulative = -3.24898e-07
GAMGPCG:  Solving for p_rgh, Initial residual = 0.00277236, Final residual = 1.69845e-07, No Iterations 4
diagonal:  Solving for rho, Initial residual = 0, Final residual = 0, No Iterations 0
time step continuity errors : sum local = 9.67523e-09, global = 2.11771e-10, cumulative = -3.24686e-07
DILUPBiCGStab:  Solving for omega, Initial residual = 0.000111729, Final residual = 1.47491e-09, No Iterations 2
DILUPBiCGStab:  Solving for k, Initial residual = 0.0059272, Final residual = 4.11236e-09, No Iterations 3

ExecutionTime = 5.37 s  ClockTime = 5 s

    Overall     = 0.00164937, 0.01
Time = 291

diagonal:  Solving for rho, Initial residual = 0, Final residual = 0, No Iterations 0

Execution time for mesh.update() = 0 s

DILUPBiCGStab:  Solving for Ux, Initial residual = 0.00513829, Final residual = 4.65171e-09, No Iterations 3
DILUPBiCGStab:  Solving for Uy, Initial residual = 0.00720339, Final residual = 6.29675e-09, No Iterations 3
DILUPBiCGStab:  Solving for O2, Initial residual = 0.0028861, Final residual = 2.40305e-09, No Iterations 3
DILUPBiCGStab:  Solving for H2O, Initial residual = 0.00288611, Final residual = 2.40324e-09, No Iterations 3
DILUPBiCGStab:  Solving for CH4, Initial residual = 0, Final residual = 0, No Iterations 0
DILUPBiCGStab:  Solving for CO2, Initial residual = 0.00288612, Final residual = 2.40324e-09, No Iterations 3
DILUPBiCGStab:  Solving for h, Initial residual = 0.00340918, Final residual = 2.53579e-09, No Iterations 3
min/max(T) = 299.714, 1044.98
GAMGPCG:  Solving for p_rgh, Initial residual = 0.0203376, Final residual = 5.46102e-07, No Iterations 4
diagonal:  Solving for rho, Initial residual = 0, Final residual = 0, No Iterations 0
time step continuity errors : sum local = 3.19722e-08, global = 6.31366e-10, cumulative = -3.24055e-07
GAMGPCG:  Solving for p_rgh, Initial residual = 0.00279134, Final residual = 9.1114e-07, No Iterations 3
diagonal:  Solving for rho, Initial residual = 0, Final residual = 0, No Iterations 0
time step continuity errors : sum local = 5.07843e-08, global = -4.32753e-09, cumulative = -3.28382e-07
DILUPBiCGStab:  Solving for omega, Initial residual = 0.000111969, Final residual = 1.47909e-09, No Iterations 2
DILUPBiCGStab:  Solving for k, Initial residual = 0.0059467, Final residual = 5.68382e-09, No Iterations 3

ExecutionTime = 5.48 s  ClockTime = 6 s

    Overall     = 0.00162048, 0.01
Time = 292

diagonal:  Solving for rho, Initial residual = 0, Final residual = 0, No Iterations 0

Execution time for mesh.update() = 0 s

DILUPBiCGStab:  Solving for Ux, Initial residual = 0.00512208, Final residual = 4.8522e-09, No Iterations 3
DILUPBiCGStab:  Solving for Uy, Initial residual = 0.00715507, Final residual = 6.18454e-09, No Iterations 3
DILUPBiCGStab:  Solving for O2, Initial residual = 0.00288748, Final residual = 2.51484e-09, No Iterations 3
DILUPBiCGStab:  Solving for H2O, Initial residual = 0.00288763, Final residual = 2.51488e-09, No Iterations 3
DILUPBiCGStab:  Solving for CH4, Initial residual = 0, Final residual = 0, No Iterations 0
DILUPBiCGStab:  Solving for CO2, Initial residual = 0.00288763, Final residual = 2.51488e-09, No Iterations 3
DILUPBiCGStab:  Solving for h, Initial residual = 0.00341626, Final residual = 2.56401e-09, No Iterations 3
min/max(T) = 299.587, 1044.98
GAMGPCG:  Solving for p_rgh, Initial residual = 0.0202026, Final residual = 5.56316e-07, No Iterations 4
diagonal:  Solving for rho, Initial residual = 0, Final residual = 0, No Iterations 0
time step continuity errors : sum local = 3.15487e-08, global = -3.09362e-09, cumulative = -3.31476e-07
GAMGPCG:  Solving for p_rgh, Initial residual = 0.00283318, Final residual = 1.5409e-07, No Iterations 4
diagonal:  Solving for rho, Initial residual = 0, Final residual = 0, No Iterations 0
time step continuity errors : sum local = 8.65943e-09, global = 4.31527e-11, cumulative = -3.31433e-07
DILUPBiCGStab:  Solving for omega, Initial residual = 0.000112531, Final residual = 1.49884e-09, No Iterations 2
DILUPBiCGStab:  Solving for k, Initial residual = 0.00596872, Final residual = 9.99935e-10, No Iterations 3

ExecutionTime = 5.6 s  ClockTime = 6 s

    Overall     = 0.00159188, 0.01
Time = 293

[...]

Execution time for mesh.update() = 0 s

DILUPBiCGStab:  Solving for Ux, Initial residual = 0.0043123, Final residual = 6.62957e-09, No Iterations 3
DILUPBiCGStab:  Solving for Uy, Initial residual = 0.00381521, Final residual = 7.11814e-09, No Iterations 3
GAMGPCG:  Solving for G, Initial residual = 0.206414, Final residual = 6.80382e-05, No Iterations 5
DILUPBiCGStab:  Solving for O2, Initial residual = 0.00139865, Final residual = 2.42695e-09, No Iterations 3
DILUPBiCGStab:  Solving for H2O, Initial residual = 0.00139865, Final residual = 2.42695e-09, No Iterations 3
DILUPBiCGStab:  Solving for CH4, Initial residual = 0, Final residual = 0, No Iterations 0
DILUPBiCGStab:  Solving for CO2, Initial residual = 0.00139865, Final residual = 2.42695e-09, No Iterations 3
DILUPBiCGStab:  Solving for h, Initial residual = 0.00157534, Final residual = 2.33276e-09, No Iterations 3
min/max(T) = 300, 1044.98
GAMGPCG:  Solving for p_rgh, Initial residual = 0.0182968, Final residual = 9.38355e-07, No Iterations 4
diagonal:  Solving for rho, Initial residual = 0, Final residual = 0, No Iterations 0
time step continuity errors : sum local = 3.66131e-08, global = 5.5277e-09, cumulative = 1.3877e-06
GAMGPCG:  Solving for p_rgh, Initial residual = 0.00315117, Final residual = 2.65073e-07, No Iterations 4
diagonal:  Solving for rho, Initial residual = 0, Final residual = 0, No Iterations 0
time step continuity errors : sum local = 9.93538e-09, global = 9.20414e-10, cumulative = 1.38862e-06
DILUPBiCGStab:  Solving for omega, Initial residual = 7.69896e-05, Final residual = 1.45184e-09, No Iterations 2
DILUPBiCGStab:  Solving for k, Initial residual = 0.00277887, Final residual = 1.80808e-09, No Iterations 3

ExecutionTime = 292.4 s  ClockTime = 293 s

    Overall     = 0.00126981, 0.01
Time = 2491

diagonal:  Solving for rho, Initial residual = 0, Final residual = 0, No Iterations 0

Execution time for mesh.update() = 0 s

DILUPBiCGStab:  Solving for Ux, Initial residual = 0.0043193, Final residual = 7.0709e-09, No Iterations 3
DILUPBiCGStab:  Solving for Uy, Initial residual = 0.0038232, Final residual = 6.29881e-09, No Iterations 3
DILUPBiCGStab:  Solving for O2, Initial residual = 0.00139018, Final residual = 1.70492e-09, No Iterations 3
DILUPBiCGStab:  Solving for H2O, Initial residual = 0.00139018, Final residual = 1.70491e-09, No Iterations 3
DILUPBiCGStab:  Solving for CH4, Initial residual = 0, Final residual = 0, No Iterations 0
DILUPBiCGStab:  Solving for CO2, Initial residual = 0.00139018, Final residual = 1.70491e-09, No Iterations 3
DILUPBiCGStab:  Solving for h, Initial residual = 0.00156001, Final residual = 5.49008e-09, No Iterations 3
min/max(T) = 300, 1044.98
GAMGPCG:  Solving for p_rgh, Initial residual = 0.0177173, Final residual = 1.50455e-07, No Iterations 5
diagonal:  Solving for rho, Initial residual = 0, Final residual = 0, No Iterations 0
time step continuity errors : sum local = 5.99095e-09, global = 6.50568e-10, cumulative = 1.38927e-06
GAMGPCG:  Solving for p_rgh, Initial residual = 0.00316352, Final residual = 2.66986e-07, No Iterations 4
diagonal:  Solving for rho, Initial residual = 0, Final residual = 0, No Iterations 0
time step continuity errors : sum local = 9.96244e-09, global = 1.1882e-09, cumulative = 1.39046e-06
DILUPBiCGStab:  Solving for omega, Initial residual = 7.70352e-05, Final residual = 1.37071e-09, No Iterations 2
DILUPBiCGStab:  Solving for k, Initial residual = 0.00276048, Final residual = 1.92464e-09, No Iterations 3

ExecutionTime = 292.52 s  ClockTime = 293 s

    Overall     = 0.00126263, 0.01
Time = 2492

diagonal:  Solving for rho, Initial residual = 0, Final residual = 0, No Iterations 0

Execution time for mesh.update() = 0 s

DILUPBiCGStab:  Solving for Ux, Initial residual = 0.00429597, Final residual = 6.73099e-09, No Iterations 3
DILUPBiCGStab:  Solving for Uy, Initial residual = 0.00381023, Final residual = 5.30555e-09, No Iterations 3
DILUPBiCGStab:  Solving for O2, Initial residual = 0.00138802, Final residual = 7.0045e-09, No Iterations 3
DILUPBiCGStab:  Solving for H2O, Initial residual = 0.00138802, Final residual = 7.00449e-09, No Iterations 3
DILUPBiCGStab:  Solving for CH4, Initial residual = 0, Final residual = 0, No Iterations 0
DILUPBiCGStab:  Solving for CO2, Initial residual = 0.00138802, Final residual = 7.00449e-09, No Iterations 3
DILUPBiCGStab:  Solving for h, Initial residual = 0.00156737, Final residual = 4.53349e-09, No Iterations 3
min/max(T) = 300, 1044.98
GAMGPCG:  Solving for p_rgh, Initial residual = 0.0179963, Final residual = 1.71278e-07, No Iterations 5
diagonal:  Solving for rho, Initial residual = 0, Final residual = 0, No Iterations 0
time step continuity errors : sum local = 6.88701e-09, global = 5.71834e-10, cumulative = 1.39103e-06
GAMGPCG:  Solving for p_rgh, Initial residual = 0.00321414, Final residual = 2.44244e-07, No Iterations 4
diagonal:  Solving for rho, Initial residual = 0, Final residual = 0, No Iterations 0
time step continuity errors : sum local = 9.22835e-09, global = 1.36e-09, cumulative = 1.39239e-06
DILUPBiCGStab:  Solving for omega, Initial residual = 7.80399e-05, Final residual = 1.47097e-09, No Iterations 2
DILUPBiCGStab:  Solving for k, Initial residual = 0.00277182, Final residual = 2.0055e-09, No Iterations 3

ExecutionTime = 292.63 s  ClockTime = 293 s

    Overall     = 0.0012626, 0.01
Time = 2493

diagonal:  Solving for rho, Initial residual = 0, Final residual = 0, No Iterations 0

Execution time for mesh.update() = 0 s

DILUPBiCGStab:  Solving for Ux, Initial residual = 0.0043572, Final residual = 6.83554e-09, No Iterations 3
DILUPBiCGStab:  Solving for Uy, Initial residual = 0.0038483, Final residual = 5.33701e-09, No Iterations 3
DILUPBiCGStab:  Solving for O2, Initial residual = 0.00139749, Final residual = 6.84557e-09, No Iterations 3
DILUPBiCGStab:  Solving for H2O, Initial residual = 0.00139749, Final residual = 6.84557e-09, No Iterations 3
DILUPBiCGStab:  Solving for CH4, Initial residual = 0, Final residual = 0, No Iterations 0
DILUPBiCGStab:  Solving for CO2, Initial residual = 0.00139749, Final residual = 6.84557e-09, No Iterations 3
DILUPBiCGStab:  Solving for h, Initial residual = 0.00157448, Final residual = 9.75696e-10, No Iterations 3
min/max(T) = 300, 1044.98
GAMGPCG:  Solving for p_rgh, Initial residual = 0.0178481, Final residual = 1.86378e-07, No Iterations 5
diagonal:  Solving for rho, Initial residual = 0, Final residual = 0, No Iterations 0
time step continuity errors : sum local = 7.47705e-09, global = 4.20938e-10, cumulative = 1.39282e-06
GAMGPCG:  Solving for p_rgh, Initial residual = 0.00318287, Final residual = 2.47428e-07, No Iterations 4
diagonal:  Solving for rho, Initial residual = 0, Final residual = 0, No Iterations 0
time step continuity errors : sum local = 9.34187e-09, global = 8.7132e-10, cumulative = 1.39369e-06
DILUPBiCGStab:  Solving for omega, Initial residual = 7.6962e-05, Final residual = 1.49207e-09, No Iterations 2
DILUPBiCGStab:  Solving for k, Initial residual = 0.00276288, Final residual = 1.93331e-09, No Iterations 3

ExecutionTime = 292.75 s  ClockTime = 293 s

    Overall     = 0.00125506, 0.01
Time = 2494

diagonal:  Solving for rho, Initial residual = 0, Final residual = 0, No Iterations 0

Execution time for mesh.update() = 0 s

DILUPBiCGStab:  Solving for Ux, Initial residual = 0.00431116, Final residual = 7.44203e-09, No Iterations 3
DILUPBiCGStab:  Solving for Uy, Initial residual = 0.00389009, Final residual = 5.51323e-09, No Iterations 3
DILUPBiCGStab:  Solving for O2, Initial residual = 0.00141098, Final residual = 5.22511e-09, No Iterations 3
DILUPBiCGStab:  Solving for H2O, Initial residual = 0.00141098, Final residual = 5.22511e-09, No Iterations 3
DILUPBiCGStab:  Solving for CH4, Initial residual = 0, Final residual = 0, No Iterations 0
DILUPBiCGStab:  Solving for CO2, Initial residual = 0.00141098, Final residual = 5.22511e-09, No Iterations 3
DILUPBiCGStab:  Solving for h, Initial residual = 0.00159621, Final residual = 6.98259e-09, No Iterations 3
min/max(T) = 300, 1044.98
GAMGPCG:  Solving for p_rgh, Initial residual = 0.0184846, Final residual = 1.77214e-07, No Iterations 5
diagonal:  Solving for rho, Initial residual = 0, Final residual = 0, No Iterations 0
time step continuity errors : sum local = 7.12358e-09, global = 4.32258e-10, cumulative = 1.39412e-06
GAMGPCG:  Solving for p_rgh, Initial residual = 0.00320372, Final residual = 2.63215e-07, No Iterations 4
diagonal:  Solving for rho, Initial residual = 0, Final residual = 0, No Iterations 0
time step continuity errors : sum local = 9.99821e-09, global = 9.13893e-10, cumulative = 1.39503e-06
DILUPBiCGStab:  Solving for omega, Initial residual = 7.83282e-05, Final residual = 1.40311e-09, No Iterations 2
DILUPBiCGStab:  Solving for k, Initial residual = 0.00276474, Final residual = 1.81686e-09, No Iterations 3

ExecutionTime = 292.87 s  ClockTime = 293 s

    Overall     = 0.00125371, 0.01
Time = 2495

diagonal:  Solving for rho, Initial residual = 0, Final residual = 0, No Iterations 0

Execution time for mesh.update() = 0 s

DILUPBiCGStab:  Solving for Ux, Initial residual = 0.00435331, Final residual = 8.05745e-09, No Iterations 3
DILUPBiCGStab:  Solving for Uy, Initial residual = 0.00393906, Final residual = 5.73104e-09, No Iterations 3
DILUPBiCGStab:  Solving for O2, Initial residual = 0.0014191, Final residual = 1.96165e-09, No Iterations 3
DILUPBiCGStab:  Solving for H2O, Initial residual = 0.0014191, Final residual = 1.96165e-09, No Iterations 3
DILUPBiCGStab:  Solving for CH4, Initial residual = 0, Final residual = 0, No Iterations 0
DILUPBiCGStab:  Solving for CO2, Initial residual = 0.0014191, Final residual = 1.96165e-09, No Iterations 3
DILUPBiCGStab:  Solving for h, Initial residual = 0.00160618, Final residual = 2.01739e-09, No Iterations 3
min/max(T) = 300, 1044.98
GAMGPCG:  Solving for p_rgh, Initial residual = 0.0185804, Final residual = 2.05979e-07, No Iterations 5
diagonal:  Solving for rho, Initial residual = 0, Final residual = 0, No Iterations 0
time step continuity errors : sum local = 8.28829e-09, global = 5.78305e-11, cumulative = 1.39509e-06
GAMGPCG:  Solving for p_rgh, Initial residual = 0.00340388, Final residual = 2.45445e-07, No Iterations 4
diagonal:  Solving for rho, Initial residual = 0, Final residual = 0, No Iterations 0
time step continuity errors : sum local = 9.48987e-09, global = 1.64354e-09, cumulative = 1.39673e-06
DILUPBiCGStab:  Solving for omega, Initial residual = 8.02871e-05, Final residual = 1.2119e-09, No Iterations 2
DILUPBiCGStab:  Solving for k, Initial residual = 0.00279113, Final residual = 1.77847e-09, No Iterations 3

ExecutionTime = 292.99 s  ClockTime = 293 s

    Overall     = 0.00124507, 0.01
Time = 2496

diagonal:  Solving for rho, Initial residual = 0, Final residual = 0, No Iterations 0

Execution time for mesh.update() = 0 s

DILUPBiCGStab:  Solving for Ux, Initial residual = 0.00438325, Final residual = 9.32671e-09, No Iterations 3
DILUPBiCGStab:  Solving for Uy, Initial residual = 0.00402193, Final residual = 5.45927e-09, No Iterations 3
DILUPBiCGStab:  Solving for O2, Initial residual = 0.00144824, Final residual = 1.80339e-09, No Iterations 3
DILUPBiCGStab:  Solving for H2O, Initial residual = 0.00144824, Final residual = 1.80339e-09, No Iterations 3
DILUPBiCGStab:  Solving for CH4, Initial residual = 0, Final residual = 0, No Iterations 0
DILUPBiCGStab:  Solving for CO2, Initial residual = 0.00144824, Final residual = 1.80339e-09, No Iterations 3
DILUPBiCGStab:  Solving for h, Initial residual = 0.00164427, Final residual = 1.753e-09, No Iterations 3
min/max(T) = 300, 1044.98
GAMGPCG:  Solving for p_rgh, Initial residual = 0.0193906, Final residual = 1.86579e-07, No Iterations 5
diagonal:  Solving for rho, Initial residual = 0, Final residual = 0, No Iterations 0
time step continuity errors : sum local = 7.49018e-09, global = 7.68675e-11, cumulative = 1.39681e-06
GAMGPCG:  Solving for p_rgh, Initial residual = 0.00332369, Final residual = 2.61378e-07, No Iterations 4
diagonal:  Solving for rho, Initial residual = 0, Final residual = 0, No Iterations 0
time step continuity errors : sum local = 9.92588e-09, global = 1.25871e-09, cumulative = 1.39807e-06
DILUPBiCGStab:  Solving for omega, Initial residual = 8.12661e-05, Final residual = 1.08047e-09, No Iterations 2
DILUPBiCGStab:  Solving for k, Initial residual = 0.00280627, Final residual = 1.59272e-09, No Iterations 3

ExecutionTime = 293.1 s  ClockTime = 293 s

    Overall     = 0.00124464, 0.01
Time = 2497

diagonal:  Solving for rho, Initial residual = 0, Final residual = 0, No Iterations 0

Execution time for mesh.update() = 0 s

DILUPBiCGStab:  Solving for Ux, Initial residual = 0.00441791, Final residual = 8.15496e-09, No Iterations 3
DILUPBiCGStab:  Solving for Uy, Initial residual = 0.00409849, Final residual = 7.77892e-09, No Iterations 3
DILUPBiCGStab:  Solving for O2, Initial residual = 0.00143819, Final residual = 2.06517e-09, No Iterations 3
DILUPBiCGStab:  Solving for H2O, Initial residual = 0.00143819, Final residual = 2.06517e-09, No Iterations 3
DILUPBiCGStab:  Solving for CH4, Initial residual = 0, Final residual = 0, No Iterations 0
DILUPBiCGStab:  Solving for CO2, Initial residual = 0.00143819, Final residual = 2.06517e-09, No Iterations 3
DILUPBiCGStab:  Solving for h, Initial residual = 0.00162957, Final residual = 1.9914e-09, No Iterations 3
min/max(T) = 300, 1044.98
GAMGPCG:  Solving for p_rgh, Initial residual = 0.0181806, Final residual = 1.94964e-07, No Iterations 5
diagonal:  Solving for rho, Initial residual = 0, Final residual = 0, No Iterations 0
time step continuity errors : sum local = 7.55397e-09, global = 5.94931e-10, cumulative = 1.39867e-06
GAMGPCG:  Solving for p_rgh, Initial residual = 0.00335584, Final residual = 2.5388e-07, No Iterations 4
diagonal:  Solving for rho, Initial residual = 0, Final residual = 0, No Iterations 0
time step continuity errors : sum local = 9.66144e-09, global = 1.77568e-09, cumulative = 1.40044e-06
DILUPBiCGStab:  Solving for omega, Initial residual = 7.90606e-05, Final residual = 9.20094e-10, No Iterations 2
DILUPBiCGStab:  Solving for k, Initial residual = 0.00278387, Final residual = 5.37035e-09, No Iterations 3

ExecutionTime = 293.22 s  ClockTime = 293 s

    Overall     = 0.00123656, 0.01
Time = 2498

diagonal:  Solving for rho, Initial residual = 0, Final residual = 0, No Iterations 0

Execution time for mesh.update() = 0 s

DILUPBiCGStab:  Solving for Ux, Initial residual = 0.00434335, Final residual = 6.04815e-09, No Iterations 3
DILUPBiCGStab:  Solving for Uy, Initial residual = 0.00404084, Final residual = 5.65544e-09, No Iterations 3
DILUPBiCGStab:  Solving for O2, Initial residual = 0.00145182, Final residual = 2.2672e-09, No Iterations 3
DILUPBiCGStab:  Solving for H2O, Initial residual = 0.00145182, Final residual = 2.2672e-09, No Iterations 3
DILUPBiCGStab:  Solving for CH4, Initial residual = 0, Final residual = 0, No Iterations 0
DILUPBiCGStab:  Solving for CO2, Initial residual = 0.00145182, Final residual = 2.2672e-09, No Iterations 3
DILUPBiCGStab:  Solving for h, Initial residual = 0.00165043, Final residual = 2.29889e-09, No Iterations 3
min/max(T) = 300, 1044.98
GAMGPCG:  Solving for p_rgh, Initial residual = 0.0190235, Final residual = 1.97718e-07, No Iterations 5
diagonal:  Solving for rho, Initial residual = 0, Final residual = 0, No Iterations 0
time step continuity errors : sum local = 8.01413e-09, global = 1.79127e-10, cumulative = 1.40062e-06
GAMGPCG:  Solving for p_rgh, Initial residual = 0.00327934, Final residual = 3.09276e-07, No Iterations 4
diagonal:  Solving for rho, Initial residual = 0, Final residual = 0, No Iterations 0
time step continuity errors : sum local = 1.18673e-08, global = 2.44548e-09, cumulative = 1.40307e-06
DILUPBiCGStab:  Solving for omega, Initial residual = 7.95818e-05, Final residual = 9.51326e-10, No Iterations 2
DILUPBiCGStab:  Solving for k, Initial residual = 0.0027784, Final residual = 2.4242e-09, No Iterations 3

ExecutionTime = 293.34 s  ClockTime = 294 s

    Overall     = 0.00123542, 0.01
Time = 2499

diagonal:  Solving for rho, Initial residual = 0, Final residual = 0, No Iterations 0

Execution time for mesh.update() = 0 s

DILUPBiCGStab:  Solving for Ux, Initial residual = 0.00438067, Final residual = 5.47031e-09, No Iterations 3
DILUPBiCGStab:  Solving for Uy, Initial residual = 0.00409165, Final residual = 1.04042e-09, No Iterations 3
DILUPBiCGStab:  Solving for O2, Initial residual = 0.00145773, Final residual = 2.38336e-09, No Iterations 3
DILUPBiCGStab:  Solving for H2O, Initial residual = 0.00145773, Final residual = 2.38336e-09, No Iterations 3
DILUPBiCGStab:  Solving for CH4, Initial residual = 0, Final residual = 0, No Iterations 0
DILUPBiCGStab:  Solving for CO2, Initial residual = 0.00145773, Final residual = 2.38336e-09, No Iterations 3
DILUPBiCGStab:  Solving for h, Initial residual = 0.00165005, Final residual = 2.38936e-09, No Iterations 3
min/max(T) = 300, 1044.98
GAMGPCG:  Solving for p_rgh, Initial residual = 0.0183667, Final residual = 1.92401e-07, No Iterations 5
diagonal:  Solving for rho, Initial residual = 0, Final residual = 0, No Iterations 0
time step continuity errors : sum local = 7.71783e-09, global = 4.05231e-10, cumulative = 1.40347e-06
GAMGPCG:  Solving for p_rgh, Initial residual = 0.00336115, Final residual = 3.54609e-07, No Iterations 4
diagonal:  Solving for rho, Initial residual = 0, Final residual = 0, No Iterations 0
time step continuity errors : sum local = 1.36294e-08, global = 3.09017e-09, cumulative = 1.40656e-06
DILUPBiCGStab:  Solving for omega, Initial residual = 7.87782e-05, Final residual = 1.29316e-09, No Iterations 2
DILUPBiCGStab:  Solving for k, Initial residual = 0.00278995, Final residual = 2.3583e-09, No Iterations 3

ExecutionTime = 293.45 s  ClockTime = 294 s

    Overall     = 0.00122711, 0.01
Time = 2500

diagonal:  Solving for rho, Initial residual = 0, Final residual = 0, No Iterations 0

Execution time for mesh.update() = 0 s

DILUPBiCGStab:  Solving for Ux, Initial residual = 0.00440948, Final residual = 5.28736e-09, No Iterations 3
DILUPBiCGStab:  Solving for Uy, Initial residual = 0.00410759, Final residual = 5.21308e-09, No Iterations 3
GAMGPCG:  Solving for G, Initial residual = 0.226194, Final residual = 4.80077e-05, No Iterations 6
DILUPBiCGStab:  Solving for O2, Initial residual = 0.00149229, Final residual = 2.69943e-09, No Iterations 3
DILUPBiCGStab:  Solving for H2O, Initial residual = 0.00149229, Final residual = 2.69943e-09, No Iterations 3
DILUPBiCGStab:  Solving for CH4, Initial residual = 0, Final residual = 0, No Iterations 0
DILUPBiCGStab:  Solving for CO2, Initial residual = 0.00149229, Final residual = 2.69943e-09, No Iterations 3
DILUPBiCGStab:  Solving for h, Initial residual = 0.00169462, Final residual = 2.56023e-09, No Iterations 3
min/max(T) = 300, 1044.98
GAMGPCG:  Solving for p_rgh, Initial residual = 0.0201043, Final residual = 8.85683e-07, No Iterations 4
diagonal:  Solving for rho, Initial residual = 0, Final residual = 0, No Iterations 0
time step continuity errors : sum local = 3.50798e-08, global = 1.6137e-09, cumulative = 1.40817e-06
GAMGPCG:  Solving for p_rgh, Initial residual = 0.00325956, Final residual = 3.96631e-07, No Iterations 4
diagonal:  Solving for rho, Initial residual = 0, Final residual = 0, No Iterations 0
time step continuity errors : sum local = 1.51943e-08, global = 3.59817e-09, cumulative = 1.41177e-06
DILUPBiCGStab:  Solving for omega, Initial residual = 7.9791e-05, Final residual = 1.37017e-09, No Iterations 2
DILUPBiCGStab:  Solving for k, Initial residual = 0.00283544, Final residual = 1.40001e-09, No Iterations 3

ExecutionTime = 293.71 s  ClockTime = 294 s


Patch Mean : 302.954
Patch Variance : 0.00275265
Patch Gradient : 0.207211
End
