/*---------------------------------------------------------------------------*\
  =========                 |
  \\      /  F ield         | OpenFOAM: The Open Source CFD Toolbox
   \\    /   O peration     | Website:  https://openfoam.org
    \\  /    A nd           | Version:  dev
     \\/     M anipulation  |
\*---------------------------------------------------------------------------*/
Build  : dev-cabe48fb62c1
Exec   : fireDyMFoam
Date   : Apr 15 2019
Time   : 14:25:15
Host   : "Host"
PID    : 8808
I/O    : uncollated
Case   : /home/tesla/OpenFOAM/tesla-dev/run/rollerOpt_COBYLA_NEW
nProcs : 1
sigFpe : Enabling floating point exception trapping (FOAM_SIGFPE).
fileModificationChecking : Monitoring run-time modified files using timeStampMaster (fileModificationSkew 10)
allowSystemOperations : Allowing user-supplied system call operations

// * * * * * * * * * * * * * * * * * * * * * * * * * * * * * * * * * * * * * //
Create time

--> FOAM Warning : 
    From function void* Foam::dlOpen(const Foam::fileName&, bool)
    in file POSIX.C at line 1268
    dlopen error : libgroovyBC.so: cannot open shared object file: No such file or directory
--> FOAM Warning : 
    From function bool Foam::dlLibraryTable::open(const Foam::fileName&, bool)
    in file db/dynamicLibrary/dlLibraryTable/dlLibraryTable.C at line 105
    could not load "libgroovyBC.so"
Create mesh for time = 250

Selecting dynamicFvMesh dynamicRefineFvMesh
Detected 539 cells that are protected from refinement. Writing these to cellSet protectedCells.

PIMPLE: No convergence criteria found


PIMPLE: Operating solver in PISO mode


Initializing Solver

Selecting thermodynamics package 
{
    type            hePsiThermo;
    mixture         reactingMixture;
    transport       sutherland;
    thermo          janaf;
    energy          sensibleEnthalpy;
    equationOfState perfectGas;
    specie          specie;
}

Selecting chemistryReader foamChemistryReader
    elements not defined in "/home/tesla/OpenFOAM/tesla-dev/run/rollerOpt_COBYLA_NEW/constant/reactions"
Reading/calculating face flux field phi

No MRF models present

Selecting turbulence model type RAS
Selecting RAS turbulence model kOmegaSST
Selecting patchDistMethod meshWave
kOmegaSSTCoeffs
{
    delta           cubeRootVol;
    cubeRootVolCoeffs
    {
        deltaCoeff      1;
    }
    alphaK1         0.85;
    alphaK2         1;
    alphaOmega1     0.5;
    alphaOmega2     0.856;
    gamma1          0.555556;
    gamma2          0.44;
    beta1           0.075;
    beta2           0.0828;
    betaStar        0.09;
    a1              0.31;
    b1              1;
    c1              10;
    F3              false;
}

Selecting combustion model none<psiThermoCombustion>
--> FOAM Warning : 
    From function static Foam::autoPtr<T> Foam::combustionModel::New(typename CombustionModel::reactionThermo&, const Foam::compressibleTurbulenceModel&, const Foam::word&) [with CombustionModel = Foam::CombustionModel<Foam::psiReactionThermo>; typename CombustionModel::reactionThermo = Foam::psiReactionThermo]
    in file /home/tesla/OpenFOAM/OpenFOAM-dev/src/combustionModels/lnInclude/combustionModelTemplates.C at line 69
    Template parameters are no longer required when selecting a combustionModel. This information is now obtained directly from the thermodynamics. Actually selecting combustion model none.

Reading g

Reading hRef
Calculating field g.h


Reading pRef
Selecting radiationModel P1
Selecting absorptionEmissionModel greyMeanAbsorptionEmission
Selecting scatterModel none
Selecting sootModel none
Creating finite volume options from "system/fvOptions"

No finite volume options present
Using LTS

Starting time loop

Using dynamicCode for functionObject patchCalcs at line 64 in "/home/tesla/OpenFOAM/tesla-dev/run/rollerOpt_COBYLA_NEW/system/controlDict.functions.patchCalcs"
    Overall     = 0.00180417, 0.01
Time = 251

diagonal:  Solving for rho, Initial residual = 0, Final residual = 0, No Iterations 0

Execution time for mesh.update() = 0 s

DILUPBiCGStab:  Solving for Ux, Initial residual = 0.00592922, Final residual = 5.7738e-09, No Iterations 3
DILUPBiCGStab:  Solving for Uy, Initial residual = 0.00859189, Final residual = 8.39554e-09, No Iterations 3
GAMGPCG:  Solving for G, Initial residual = 0.0322536, Final residual = 6.65185e-05, No Iterations 4
DILUPBiCGStab:  Solving for O2, Initial residual = 0.00321383, Final residual = 3.06993e-09, No Iterations 3
DILUPBiCGStab:  Solving for H2O, Initial residual = 0.00321402, Final residual = 3.07016e-09, No Iterations 3
DILUPBiCGStab:  Solving for CH4, Initial residual = 0, Final residual = 0, No Iterations 0
DILUPBiCGStab:  Solving for CO2, Initial residual = 0.00321402, Final residual = 3.07014e-09, No Iterations 3
DILUPBiCGStab:  Solving for h, Initial residual = 0.00365311, Final residual = 2.91524e-09, No Iterations 3
min/max(T) = 299.685, 1044.98
GAMGPCG:  Solving for p_rgh, Initial residual = 0.0221341, Final residual = 8.88185e-07, No Iterations 4
diagonal:  Solving for rho, Initial residual = 0, Final residual = 0, No Iterations 0
time step continuity errors : sum local = 2.47365e-06, global = -1.4035e-07, cumulative = -1.4035e-07
GAMGPCG:  Solving for p_rgh, Initial residual = 0.00307304, Final residual = 1.73321e-07, No Iterations 4
diagonal:  Solving for rho, Initial residual = 0, Final residual = 0, No Iterations 0
time step continuity errors : sum local = 2.46472e-06, global = -1.38794e-07, cumulative = -2.79145e-07
DILUPBiCGStab:  Solving for omega, Initial residual = 0.000142076, Final residual = 2.65315e-09, No Iterations 2
DILUPBiCGStab:  Solving for k, Initial residual = 0.00705406, Final residual = 3.8428e-09, No Iterations 3

ExecutionTime = 0.38 s  ClockTime = 0 s

    Overall     = 0.00180571, 0.01
Time = 252

diagonal:  Solving for rho, Initial residual = 0, Final residual = 0, No Iterations 0

Execution time for mesh.update() = 0 s

DILUPBiCGStab:  Solving for Ux, Initial residual = 0.00591611, Final residual = 5.81925e-09, No Iterations 3
DILUPBiCGStab:  Solving for Uy, Initial residual = 0.00855576, Final residual = 8.8252e-09, No Iterations 3
DILUPBiCGStab:  Solving for O2, Initial residual = 0.00321075, Final residual = 4.18482e-09, No Iterations 3
DILUPBiCGStab:  Solving for H2O, Initial residual = 0.00321093, Final residual = 4.1852e-09, No Iterations 3
DILUPBiCGStab:  Solving for CH4, Initial residual = 0, Final residual = 0, No Iterations 0
DILUPBiCGStab:  Solving for CO2, Initial residual = 0.00321093, Final residual = 4.18518e-09, No Iterations 3
DILUPBiCGStab:  Solving for h, Initial residual = 0.00364933, Final residual = 4.03761e-09, No Iterations 3
min/max(T) = 299.685, 1044.98
GAMGPCG:  Solving for p_rgh, Initial residual = 0.0215364, Final residual = 8.59278e-07, No Iterations 4
diagonal:  Solving for rho, Initial residual = 0, Final residual = 0, No Iterations 0
time step continuity errors : sum local = 4.74359e-08, global = -5.69354e-10, cumulative = -2.79714e-07
GAMGPCG:  Solving for p_rgh, Initial residual = 0.00296908, Final residual = 1.96726e-07, No Iterations 4
diagonal:  Solving for rho, Initial residual = 0, Final residual = 0, No Iterations 0
time step continuity errors : sum local = 1.01872e-08, global = 1.76765e-09, cumulative = -2.77947e-07
DILUPBiCGStab:  Solving for omega, Initial residual = 0.000141877, Final residual = 2.67756e-09, No Iterations 2
DILUPBiCGStab:  Solving for k, Initial residual = 0.00708929, Final residual = 3.86904e-09, No Iterations 3

ExecutionTime = 0.49 s  ClockTime = 0 s

    Overall     = 0.00180725, 0.01
Time = 253

diagonal:  Solving for rho, Initial residual = 0, Final residual = 0, No Iterations 0

Execution time for mesh.update() = 0 s

DILUPBiCGStab:  Solving for Ux, Initial residual = 0.00593957, Final residual = 6.34814e-09, No Iterations 3
DILUPBiCGStab:  Solving for Uy, Initial residual = 0.00854488, Final residual = 8.00581e-09, No Iterations 3
DILUPBiCGStab:  Solving for O2, Initial residual = 0.00320431, Final residual = 3.79876e-09, No Iterations 3
DILUPBiCGStab:  Solving for H2O, Initial residual = 0.00320446, Final residual = 3.79888e-09, No Iterations 3
DILUPBiCGStab:  Solving for CH4, Initial residual = 0, Final residual = 0, No Iterations 0
DILUPBiCGStab:  Solving for CO2, Initial residual = 0.00320446, Final residual = 3.79887e-09, No Iterations 3
DILUPBiCGStab:  Solving for h, Initial residual = 0.00365156, Final residual = 3.6462e-09, No Iterations 3
min/max(T) = 299.688, 1044.98
GAMGPCG:  Solving for p_rgh, Initial residual = 0.0216239, Final residual = 7.12191e-07, No Iterations 4
diagonal:  Solving for rho, Initial residual = 0, Final residual = 0, No Iterations 0
time step continuity errors : sum local = 3.93205e-08, global = -2.99011e-09, cumulative = -2.80937e-07
GAMGPCG:  Solving for p_rgh, Initial residual = 0.00299042, Final residual = 1.95433e-07, No Iterations 4
diagonal:  Solving for rho, Initial residual = 0, Final residual = 0, No Iterations 0
time step continuity errors : sum local = 1.013e-08, global = 1.66179e-09, cumulative = -2.79275e-07
DILUPBiCGStab:  Solving for omega, Initial residual = 0.000141993, Final residual = 2.5818e-09, No Iterations 2
DILUPBiCGStab:  Solving for k, Initial residual = 0.00712204, Final residual = 3.62913e-09, No Iterations 3

ExecutionTime = 0.61 s  ClockTime = 0 s

    Overall     = 0.00180717, 0.01
Time = 254

diagonal:  Solving for rho, Initial residual = 0, Final residual = 0, No Iterations 0

Execution time for mesh.update() = 0.01 s

DILUPBiCGStab:  Solving for Ux, Initial residual = 0.00592475, Final residual = 6.52597e-09, No Iterations 3
DILUPBiCGStab:  Solving for Uy, Initial residual = 0.00850872, Final residual = 8.41657e-09, No Iterations 3
DILUPBiCGStab:  Solving for O2, Initial residual = 0.00319406, Final residual = 3.68951e-09, No Iterations 3
DILUPBiCGStab:  Solving for H2O, Initial residual = 0.00319426, Final residual = 3.6896e-09, No Iterations 3
DILUPBiCGStab:  Solving for CH4, Initial residual = 0, Final residual = 0, No Iterations 0
DILUPBiCGStab:  Solving for CO2, Initial residual = 0.00319427, Final residual = 3.6896e-09, No Iterations 3
DILUPBiCGStab:  Solving for h, Initial residual = 0.00364601, Final residual = 3.5432e-09, No Iterations 3
min/max(T) = 299.688, 1044.98
GAMGPCG:  Solving for p_rgh, Initial residual = 0.0217433, Final residual = 7.15111e-07, No Iterations 4
diagonal:  Solving for rho, Initial residual = 0, Final residual = 0, No Iterations 0
time step continuity errors : sum local = 3.96894e-08, global = -1.89883e-09, cumulative = -2.81174e-07
GAMGPCG:  Solving for p_rgh, Initial residual = 0.00290434, Final residual = 2.0348e-07, No Iterations 4
diagonal:  Solving for rho, Initial residual = 0, Final residual = 0, No Iterations 0
time step continuity errors : sum local = 1.04185e-08, global = 2.08995e-09, cumulative = -2.79084e-07
DILUPBiCGStab:  Solving for omega, Initial residual = 0.0001411, Final residual = 2.53248e-09, No Iterations 2
DILUPBiCGStab:  Solving for k, Initial residual = 0.00715924, Final residual = 3.57343e-09, No Iterations 3

ExecutionTime = 0.73 s  ClockTime = 1 s

    Overall     = 0.00180709, 0.01
Time = 255

diagonal:  Solving for rho, Initial residual = 0, Final residual = 0, No Iterations 0

Execution time for mesh.update() = 0 s

DILUPBiCGStab:  Solving for Ux, Initial residual = 0.00594328, Final residual = 7.38617e-09, No Iterations 3
DILUPBiCGStab:  Solving for Uy, Initial residual = 0.00852388, Final residual = 8.06571e-09, No Iterations 3
DILUPBiCGStab:  Solving for O2, Initial residual = 0.00318813, Final residual = 3.08433e-09, No Iterations 3
DILUPBiCGStab:  Solving for H2O, Initial residual = 0.00318821, Final residual = 3.08431e-09, No Iterations 3
DILUPBiCGStab:  Solving for CH4, Initial residual = 0, Final residual = 0, No Iterations 0
DILUPBiCGStab:  Solving for CO2, Initial residual = 0.00318821, Final residual = 3.08431e-09, No Iterations 3
DILUPBiCGStab:  Solving for h, Initial residual = 0.00364264, Final residual = 3.08425e-09, No Iterations 3
min/max(T) = 299.69, 1044.98
GAMGPCG:  Solving for p_rgh, Initial residual = 0.021127, Final residual = 7.08442e-07, No Iterations 4
diagonal:  Solving for rho, Initial residual = 0, Final residual = 0, No Iterations 0
time step continuity errors : sum local = 3.95534e-08, global = -2.02314e-09, cumulative = -2.81107e-07
GAMGPCG:  Solving for p_rgh, Initial residual = 0.00292792, Final residual = 2.00115e-07, No Iterations 4
diagonal:  Solving for rho, Initial residual = 0, Final residual = 0, No Iterations 0
time step continuity errors : sum local = 1.02568e-08, global = 1.99183e-09, cumulative = -2.79115e-07
DILUPBiCGStab:  Solving for omega, Initial residual = 0.000141339, Final residual = 2.65044e-09, No Iterations 2
DILUPBiCGStab:  Solving for k, Initial residual = 0.00719226, Final residual = 3.95373e-09, No Iterations 3

ExecutionTime = 0.85 s  ClockTime = 1 s

    Overall     = 0.00180574, 0.01
Time = 256

diagonal:  Solving for rho, Initial residual = 0, Final residual = 0, No Iterations 0

Execution time for mesh.update() = 0 s

DILUPBiCGStab:  Solving for Ux, Initial residual = 0.00592933, Final residual = 7.6299e-09, No Iterations 3
DILUPBiCGStab:  Solving for Uy, Initial residual = 0.00848596, Final residual = 8.38795e-09, No Iterations 3
DILUPBiCGStab:  Solving for O2, Initial residual = 0.00318479, Final residual = 3.23741e-09, No Iterations 3
DILUPBiCGStab:  Solving for H2O, Initial residual = 0.00318499, Final residual = 3.23742e-09, No Iterations 3
DILUPBiCGStab:  Solving for CH4, Initial residual = 0, Final residual = 0, No Iterations 0
DILUPBiCGStab:  Solving for CO2, Initial residual = 0.00318499, Final residual = 3.23743e-09, No Iterations 3
DILUPBiCGStab:  Solving for h, Initial residual = 0.00364549, Final residual = 3.33767e-09, No Iterations 3
min/max(T) = 299.689, 1044.98
GAMGPCG:  Solving for p_rgh, Initial residual = 0.021194, Final residual = 6.53354e-07, No Iterations 4
diagonal:  Solving for rho, Initial residual = 0, Final residual = 0, No Iterations 0
time step continuity errors : sum local = 3.58585e-08, global = -5.45406e-09, cumulative = -2.84569e-07
GAMGPCG:  Solving for p_rgh, Initial residual = 0.00289871, Final residual = 1.95571e-07, No Iterations 4
diagonal:  Solving for rho, Initial residual = 0, Final residual = 0, No Iterations 0
time step continuity errors : sum local = 9.96564e-09, global = 1.82506e-09, cumulative = -2.82744e-07
DILUPBiCGStab:  Solving for omega, Initial residual = 0.000141802, Final residual = 2.65359e-09, No Iterations 2
DILUPBiCGStab:  Solving for k, Initial residual = 0.00722531, Final residual = 4.41875e-09, No Iterations 3

ExecutionTime = 0.97 s  ClockTime = 1 s

    Overall     = 0.0018047, 0.01
Time = 257

diagonal:  Solving for rho, Initial residual = 0, Final residual = 0, No Iterations 0

Execution time for mesh.update() = 0 s

DILUPBiCGStab:  Solving for Ux, Initial residual = 0.00593167, Final residual = 8.52892e-09, No Iterations 3
DILUPBiCGStab:  Solving for Uy, Initial residual = 0.00847427, Final residual = 8.64798e-09, No Iterations 3
DILUPBiCGStab:  Solving for O2, Initial residual = 0.00318789, Final residual = 2.78493e-09, No Iterations 3
DILUPBiCGStab:  Solving for H2O, Initial residual = 0.00318802, Final residual = 2.78491e-09, No Iterations 3
DILUPBiCGStab:  Solving for CH4, Initial residual = 0, Final residual = 0, No Iterations 0
DILUPBiCGStab:  Solving for CO2, Initial residual = 0.00318802, Final residual = 2.78491e-09, No Iterations 3
DILUPBiCGStab:  Solving for h, Initial residual = 0.00365275, Final residual = 2.8958e-09, No Iterations 3
min/max(T) = 299.69, 1044.98
GAMGPCG:  Solving for p_rgh, Initial residual = 0.0211746, Final residual = 6.85011e-07, No Iterations 4
diagonal:  Solving for rho, Initial residual = 0, Final residual = 0, No Iterations 0
time step continuity errors : sum local = 3.84473e-08, global = -5.35352e-10, cumulative = -2.83279e-07
GAMGPCG:  Solving for p_rgh, Initial residual = 0.002808, Final residual = 1.97346e-07, No Iterations 4
diagonal:  Solving for rho, Initial residual = 0, Final residual = 0, No Iterations 0
time step continuity errors : sum local = 1.00886e-08, global = 1.74672e-09, cumulative = -2.81533e-07
DILUPBiCGStab:  Solving for omega, Initial residual = 0.000141251, Final residual = 2.7641e-09, No Iterations 2
DILUPBiCGStab:  Solving for k, Initial residual = 0.0072526, Final residual = 4.78306e-09, No Iterations 3

ExecutionTime = 1.08 s  ClockTime = 1 s

    Overall     = 0.00180251, 0.01
Time = 258

diagonal:  Solving for rho, Initial residual = 0, Final residual = 0, No Iterations 0

Execution time for mesh.update() = 0 s

DILUPBiCGStab:  Solving for Ux, Initial residual = 0.00592794, Final residual = 8.30167e-09, No Iterations 3
DILUPBiCGStab:  Solving for Uy, Initial residual = 0.00846422, Final residual = 9.31538e-09, No Iterations 3
DILUPBiCGStab:  Solving for O2, Initial residual = 0.00318397, Final residual = 2.74642e-09, No Iterations 3
DILUPBiCGStab:  Solving for H2O, Initial residual = 0.00318418, Final residual = 2.74643e-09, No Iterations 3
DILUPBiCGStab:  Solving for CH4, Initial residual = 0, Final residual = 0, No Iterations 0
DILUPBiCGStab:  Solving for CO2, Initial residual = 0.00318418, Final residual = 2.74643e-09, No Iterations 3
DILUPBiCGStab:  Solving for h, Initial residual = 0.00365597, Final residual = 2.89562e-09, No Iterations 3
min/max(T) = 299.688, 1044.98
GAMGPCG:  Solving for p_rgh, Initial residual = 0.0219809, Final residual = 5.07937e-07, No Iterations 4
diagonal:  Solving for rho, Initial residual = 0, Final residual = 0, No Iterations 0
time step continuity errors : sum local = 2.8035e-08, global = -1.12861e-09, cumulative = -2.82661e-07
GAMGPCG:  Solving for p_rgh, Initial residual = 0.00288366, Final residual = 1.82705e-07, No Iterations 4
diagonal:  Solving for rho, Initial residual = 0, Final residual = 0, No Iterations 0
time step continuity errors : sum local = 9.34446e-09, global = 1.71004e-09, cumulative = -2.80951e-07
DILUPBiCGStab:  Solving for omega, Initial residual = 0.000140884, Final residual = 2.83387e-09, No Iterations 2
DILUPBiCGStab:  Solving for k, Initial residual = 0.00727746, Final residual = 5.30634e-09, No Iterations 3

ExecutionTime = 1.19 s  ClockTime = 1 s

    Overall     = 0.00180069, 0.01
Time = 259

diagonal:  Solving for rho, Initial residual = 0, Final residual = 0, No Iterations 0

Execution time for mesh.update() = 0 s

DILUPBiCGStab:  Solving for Ux, Initial residual = 0.00593433, Final residual = 8.71684e-09, No Iterations 3
DILUPBiCGStab:  Solving for Uy, Initial residual = 0.00848031, Final residual = 9.82703e-09, No Iterations 3
DILUPBiCGStab:  Solving for O2, Initial residual = 0.00317589, Final residual = 2.66158e-09, No Iterations 3
DILUPBiCGStab:  Solving for H2O, Initial residual = 0.00317611, Final residual = 2.66155e-09, No Iterations 3
DILUPBiCGStab:  Solving for CH4, Initial residual = 0, Final residual = 0, No Iterations 0
DILUPBiCGStab:  Solving for CO2, Initial residual = 0.00317611, Final residual = 2.66155e-09, No Iterations 3
DILUPBiCGStab:  Solving for h, Initial residual = 0.00365215, Final residual = 2.75696e-09, No Iterations 3
min/max(T) = 299.688, 1044.98
GAMGPCG:  Solving for p_rgh, Initial residual = 0.0220166, Final residual = 5.43311e-07, No Iterations 4
diagonal:  Solving for rho, Initial residual = 0, Final residual = 0, No Iterations 0
time step continuity errors : sum local = 3.07027e-08, global = 2.76181e-09, cumulative = -2.7819e-07
GAMGPCG:  Solving for p_rgh, Initial residual = 0.00283322, Final residual = 1.84297e-07, No Iterations 4
diagonal:  Solving for rho, Initial residual = 0, Final residual = 0, No Iterations 0
time step continuity errors : sum local = 9.45088e-09, global = 1.49249e-09, cumulative = -2.76697e-07
DILUPBiCGStab:  Solving for omega, Initial residual = 0.000141063, Final residual = 2.9165e-09, No Iterations 2
DILUPBiCGStab:  Solving for k, Initial residual = 0.00729677, Final residual = 5.65164e-09, No Iterations 3

ExecutionTime = 1.31 s  ClockTime = 1 s

    Overall     = 0.00179753, 0.01
Time = 260

diagonal:  Solving for rho, Initial residual = 0, Final residual = 0, No Iterations 0

Execution time for mesh.update() = 0 s

DILUPBiCGStab:  Solving for Ux, Initial residual = 0.00593758, Final residual = 8.52823e-09, No Iterations 3
DILUPBiCGStab:  Solving for Uy, Initial residual = 0.0084687, Final residual = 1.14532e-09, No Iterations 3
GAMGPCG:  Solving for G, Initial residual = 0.129443, Final residual = 9.98565e-05, No Iterations 5
DILUPBiCGStab:  Solving for O2, Initial residual = 0.00317556, Final residual = 2.89281e-09, No Iterations 3
DILUPBiCGStab:  Solving for H2O, Initial residual = 0.00317578, Final residual = 2.89278e-09, No Iterations 3
DILUPBiCGStab:  Solving for CH4, Initial residual = 0, Final residual = 0, No Iterations 0
DILUPBiCGStab:  Solving for CO2, Initial residual = 0.00317578, Final residual = 2.89278e-09, No Iterations 3
DILUPBiCGStab:  Solving for h, Initial residual = 0.00365382, Final residual = 2.93621e-09, No Iterations 3
min/max(T) = 299.685, 1044.98
GAMGPCG:  Solving for p_rgh, Initial residual = 0.0222575, Final residual = 6.75741e-07, No Iterations 4
diagonal:  Solving for rho, Initial residual = 0, Final residual = 0, No Iterations 0
time step continuity errors : sum local = 3.80377e-08, global = -4.20089e-09, cumulative = -2.80898e-07
GAMGPCG:  Solving for p_rgh, Initial residual = 0.00284625, Final residual = 2.07075e-07, No Iterations 4
diagonal:  Solving for rho, Initial residual = 0, Final residual = 0, No Iterations 0
time step continuity errors : sum local = 1.06908e-08, global = 1.83005e-09, cumulative = -2.79068e-07
DILUPBiCGStab:  Solving for omega, Initial residual = 0.000140934, Final residual = 3.11682e-09, No Iterations 2
DILUPBiCGStab:  Solving for k, Initial residual = 0.00732227, Final residual = 7.19023e-09, No Iterations 3

ExecutionTime = 1.56 s  ClockTime = 1 s

    Overall     = 0.00179421, 0.01
Time = 261

diagonal:  Solving for rho, Initial residual = 0, Final residual = 0, No Iterations 0

Execution time for mesh.update() = 0 s

DILUPBiCGStab:  Solving for Ux, Initial residual = 0.00594387, Final residual = 7.92835e-09, No Iterations 3
DILUPBiCGStab:  Solving for Uy, Initial residual = 0.00850711, Final residual = 1.27414e-09, No Iterations 3
DILUPBiCGStab:  Solving for O2, Initial residual = 0.0031678, Final residual = 3.10411e-09, No Iterations 3
DILUPBiCGStab:  Solving for H2O, Initial residual = 0.00316802, Final residual = 3.10408e-09, No Iterations 3
DILUPBiCGStab:  Solving for CH4, Initial residual = 0, Final residual = 0, No Iterations 0
DILUPBiCGStab:  Solving for CO2, Initial residual = 0.00316802, Final residual = 3.10408e-09, No Iterations 3
DILUPBiCGStab:  Solving for h, Initial residual = 0.00364716, Final residual = 3.10578e-09, No Iterations 3
min/max(T) = 299.684, 1044.98
GAMGPCG:  Solving for p_rgh, Initial residual = 0.0225917, Final residual = 7.70321e-07, No Iterations 4
diagonal:  Solving for rho, Initial residual = 0, Final residual = 0, No Iterations 0
time step continuity errors : sum local = 4.32421e-08, global = 1.42425e-09, cumulative = -2.77644e-07
GAMGPCG:  Solving for p_rgh, Initial residual = 0.00280412, Final residual = 1.98485e-07, No Iterations 4
diagonal:  Solving for rho, Initial residual = 0, Final residual = 0, No Iterations 0
time step continuity errors : sum local = 1.02388e-08, global = 1.66233e-09, cumulative = -2.75981e-07
DILUPBiCGStab:  Solving for omega, Initial residual = 0.000140623, Final residual = 3.24408e-09, No Iterations 2
DILUPBiCGStab:  Solving for k, Initial residual = 0.00733491, Final residual = 7.59549e-09, No Iterations 3

ExecutionTime = 1.68 s  ClockTime = 2 s

    Overall     = 0.00178894, 0.01
Time = 262

diagonal:  Solving for rho, Initial residual = 0, Final residual = 0, No Iterations 0

Execution time for mesh.update() = 0 s

DILUPBiCGStab:  Solving for Ux, Initial residual = 0.00593842, Final residual = 6.85537e-09, No Iterations 3
DILUPBiCGStab:  Solving for Uy, Initial residual = 0.00851524, Final residual = 1.21909e-09, No Iterations 3
DILUPBiCGStab:  Solving for O2, Initial residual = 0.00316376, Final residual = 2.92059e-09, No Iterations 3
DILUPBiCGStab:  Solving for H2O, Initial residual = 0.00316399, Final residual = 2.92061e-09, No Iterations 3
DILUPBiCGStab:  Solving for CH4, Initial residual = 0, Final residual = 0, No Iterations 0
DILUPBiCGStab:  Solving for CO2, Initial residual = 0.00316399, Final residual = 2.92061e-09, No Iterations 3
DILUPBiCGStab:  Solving for h, Initial residual = 0.00365227, Final residual = 2.98659e-09, No Iterations 3
min/max(T) = 299.679, 1044.98
GAMGPCG:  Solving for p_rgh, Initial residual = 0.02248, Final residual = 6.78164e-07, No Iterations 4
diagonal:  Solving for rho, Initial residual = 0, Final residual = 0, No Iterations 0
time step continuity errors : sum local = 3.73427e-08, global = -1.83744e-09, cumulative = -2.77819e-07
GAMGPCG:  Solving for p_rgh, Initial residual = 0.00285879, Final residual = 1.88442e-07, No Iterations 4
diagonal:  Solving for rho, Initial residual = 0, Final residual = 0, No Iterations 0
time step continuity errors : sum local = 9.69626e-09, global = 1.71415e-09, cumulative = -2.76105e-07
DILUPBiCGStab:  Solving for omega, Initial residual = 0.000140391, Final residual = 3.04254e-09, No Iterations 2
DILUPBiCGStab:  Solving for k, Initial residual = 0.00736041, Final residual = 8.03506e-10, No Iterations 3

ExecutionTime = 1.8 s  ClockTime = 2 s

    Overall     = 0.00178329, 0.01
Time = 263

diagonal:  Solving for rho, Initial residual = 0, Final residual = 0, No Iterations 0

Execution time for mesh.update() = 0 s

DILUPBiCGStab:  Solving for Ux, Initial residual = 0.00596304, Final residual = 7.34381e-09, No Iterations 3
DILUPBiCGStab:  Solving for Uy, Initial residual = 0.0085254, Final residual = 1.21062e-09, No Iterations 3
DILUPBiCGStab:  Solving for O2, Initial residual = 0.00317284, Final residual = 3.01316e-09, No Iterations 3
DILUPBiCGStab:  Solving for H2O, Initial residual = 0.00317307, Final residual = 3.01318e-09, No Iterations 3
DILUPBiCGStab:  Solving for CH4, Initial residual = 0, Final residual = 0, No Iterations 0
DILUPBiCGStab:  Solving for CO2, Initial residual = 0.00317307, Final residual = 3.01318e-09, No Iterations 3
DILUPBiCGStab:  Solving for h, Initial residual = 0.00366596, Final residual = 3.11378e-09, No Iterations 3
min/max(T) = 299.676, 1044.98
GAMGPCG:  Solving for p_rgh, Initial residual = 0.022775, Final residual = 6.5489e-07, No Iterations 4
diagonal:  Solving for rho, Initial residual = 0, Final residual = 0, No Iterations 0
time step continuity errors : sum local = 3.59954e-08, global = 1.09795e-09, cumulative = -2.75007e-07
GAMGPCG:  Solving for p_rgh, Initial residual = 0.00289741, Final residual = 1.76456e-07, No Iterations 4
diagonal:  Solving for rho, Initial residual = 0, Final residual = 0, No Iterations 0
time step continuity errors : sum local = 9.19915e-09, global = 1.45231e-09, cumulative = -2.73554e-07
DILUPBiCGStab:  Solving for omega, Initial residual = 0.000139998, Final residual = 2.99828e-09, No Iterations 2
DILUPBiCGStab:  Solving for k, Initial residual = 0.00738452, Final residual = 8.1941e-10, No Iterations 3

ExecutionTime = 1.91 s  ClockTime = 2 s

    Overall     = 0.001776, 0.01
Time = 264

diagonal:  Solving for rho, Initial residual = 0, Final residual = 0, No Iterations 0

Execution time for mesh.update() = 0 s

DILUPBiCGStab:  Solving for Ux, Initial residual = 0.00596354, Final residual = 6.97292e-09, No Iterations 3
DILUPBiCGStab:  Solving for Uy, Initial residual = 0.008551, Final residual = 1.17264e-09, No Iterations 3
DILUPBiCGStab:  Solving for O2, Initial residual = 0.00317546, Final residual = 3.51241e-09, No Iterations 3
DILUPBiCGStab:  Solving for H2O, Initial residual = 0.00317569, Final residual = 3.51252e-09, No Iterations 3
DILUPBiCGStab:  Solving for CH4, Initial residual = 0, Final residual = 0, No Iterations 0
DILUPBiCGStab:  Solving for CO2, Initial residual = 0.00317569, Final residual = 3.51253e-09, No Iterations 3
DILUPBiCGStab:  Solving for h, Initial residual = 0.00367323, Final residual = 3.84181e-09, No Iterations 3
min/max(T) = 299.67, 1044.98
GAMGPCG:  Solving for p_rgh, Initial residual = 0.0229586, Final residual = 5.15947e-07, No Iterations 4
diagonal:  Solving for rho, Initial residual = 0, Final residual = 0, No Iterations 0
time step continuity errors : sum local = 2.89232e-08, global = -1.48689e-10, cumulative = -2.73703e-07
GAMGPCG:  Solving for p_rgh, Initial residual = 0.00293258, Final residual = 1.74405e-07, No Iterations 4
diagonal:  Solving for rho, Initial residual = 0, Final residual = 0, No Iterations 0
time step continuity errors : sum local = 9.07599e-09, global = 1.60528e-09, cumulative = -2.72098e-07
DILUPBiCGStab:  Solving for omega, Initial residual = 0.000139685, Final residual = 2.9107e-09, No Iterations 2
DILUPBiCGStab:  Solving for k, Initial residual = 0.00740737, Final residual = 9.83321e-10, No Iterations 3

ExecutionTime = 2.03 s  ClockTime = 2 s

    Overall     = 0.00176815, 0.01
Time = 265

diagonal:  Solving for rho, Initial residual = 0, Final residual = 0, No Iterations 0

Execution time for mesh.update() = 0 s

DILUPBiCGStab:  Solving for Ux, Initial residual = 0.00595203, Final residual = 7.87208e-09, No Iterations 3
DILUPBiCGStab:  Solving for Uy, Initial residual = 0.00854246, Final residual = 1.60148e-09, No Iterations 3
DILUPBiCGStab:  Solving for O2, Initial residual = 0.00317555, Final residual = 3.68844e-09, No Iterations 3
DILUPBiCGStab:  Solving for H2O, Initial residual = 0.00317578, Final residual = 3.68855e-09, No Iterations 3
DILUPBiCGStab:  Solving for CH4, Initial residual = 0, Final residual = 0, No Iterations 0
DILUPBiCGStab:  Solving for CO2, Initial residual = 0.00317578, Final residual = 3.68855e-09, No Iterations 3
DILUPBiCGStab:  Solving for h, Initial residual = 0.00367053, Final residual = 3.95437e-09, No Iterations 3
min/max(T) = 299.665, 1044.98
GAMGPCG:  Solving for p_rgh, Initial residual = 0.02294, Final residual = 6.88731e-07, No Iterations 4
diagonal:  Solving for rho, Initial residual = 0, Final residual = 0, No Iterations 0
time step continuity errors : sum local = 3.83117e-08, global = -4.50402e-09, cumulative = -2.76602e-07
GAMGPCG:  Solving for p_rgh, Initial residual = 0.00290084, Final residual = 1.68703e-07, No Iterations 4
diagonal:  Solving for rho, Initial residual = 0, Final residual = 0, No Iterations 0
time step continuity errors : sum local = 8.75039e-09, global = 1.43647e-09, cumulative = -2.75165e-07
DILUPBiCGStab:  Solving for omega, Initial residual = 0.000139748, Final residual = 2.99575e-09, No Iterations 2
DILUPBiCGStab:  Solving for k, Initial residual = 0.00742216, Final residual = 4.17437e-11, No Iterations 4

ExecutionTime = 2.14 s  ClockTime = 2 s

    Overall     = 0.00175905, 0.01
Time = 266

diagonal:  Solving for rho, Initial residual = 0, Final residual = 0, No Iterations 0

Execution time for mesh.update() = 0 s

DILUPBiCGStab:  Solving for Ux, Initial residual = 0.00594492, Final residual = 8.37892e-09, No Iterations 3
DILUPBiCGStab:  Solving for Uy, Initial residual = 0.00853389, Final residual = 2.22164e-09, No Iterations 3
DILUPBiCGStab:  Solving for O2, Initial residual = 0.00317621, Final residual = 4.5194e-09, No Iterations 3
DILUPBiCGStab:  Solving for H2O, Initial residual = 0.00317645, Final residual = 4.51969e-09, No Iterations 3
DILUPBiCGStab:  Solving for CH4, Initial residual = 0, Final residual = 0, No Iterations 0
DILUPBiCGStab:  Solving for CO2, Initial residual = 0.00317645, Final residual = 4.5197e-09, No Iterations 3
DILUPBiCGStab:  Solving for h, Initial residual = 0.00367715, Final residual = 4.71604e-09, No Iterations 3
min/max(T) = 299.657, 1044.98
GAMGPCG:  Solving for p_rgh, Initial residual = 0.0229421, Final residual = 5.66515e-07, No Iterations 4
diagonal:  Solving for rho, Initial residual = 0, Final residual = 0, No Iterations 0
time step continuity errors : sum local = 3.21554e-08, global = 1.46602e-09, cumulative = -2.73699e-07
GAMGPCG:  Solving for p_rgh, Initial residual = 0.00290615, Final residual = 1.81607e-07, No Iterations 4
diagonal:  Solving for rho, Initial residual = 0, Final residual = 0, No Iterations 0
time step continuity errors : sum local = 9.52146e-09, global = 1.51548e-09, cumulative = -2.72184e-07
DILUPBiCGStab:  Solving for omega, Initial residual = 0.000139679, Final residual = 3.08125e-09, No Iterations 2
DILUPBiCGStab:  Solving for k, Initial residual = 0.00743644, Final residual = 3.85048e-09, No Iterations 3

ExecutionTime = 2.26 s  ClockTime = 2 s

    Overall     = 0.00174919, 0.01
Time = 267

diagonal:  Solving for rho, Initial residual = 0, Final residual = 0, No Iterations 0

Execution time for mesh.update() = 0 s

DILUPBiCGStab:  Solving for Ux, Initial residual = 0.00595922, Final residual = 9.10285e-09, No Iterations 3
DILUPBiCGStab:  Solving for Uy, Initial residual = 0.00853484, Final residual = 3.65013e-09, No Iterations 3
DILUPBiCGStab:  Solving for O2, Initial residual = 0.0031787, Final residual = 4.47595e-09, No Iterations 3
DILUPBiCGStab:  Solving for H2O, Initial residual = 0.00317895, Final residual = 4.47626e-09, No Iterations 3
DILUPBiCGStab:  Solving for CH4, Initial residual = 0, Final residual = 0, No Iterations 0
DILUPBiCGStab:  Solving for CO2, Initial residual = 0.00317895, Final residual = 4.47627e-09, No Iterations 3
DILUPBiCGStab:  Solving for h, Initial residual = 0.00367894, Final residual = 4.67352e-09, No Iterations 3
min/max(T) = 299.652, 1044.98
GAMGPCG:  Solving for p_rgh, Initial residual = 0.0230917, Final residual = 6.45143e-07, No Iterations 4
diagonal:  Solving for rho, Initial residual = 0, Final residual = 0, No Iterations 0
time step continuity errors : sum local = 3.60191e-08, global = -2.1705e-09, cumulative = -2.74354e-07
GAMGPCG:  Solving for p_rgh, Initial residual = 0.00297104, Final residual = 1.97826e-07, No Iterations 4
diagonal:  Solving for rho, Initial residual = 0, Final residual = 0, No Iterations 0
time step continuity errors : sum local = 1.03539e-08, global = 1.48482e-09, cumulative = -2.72869e-07
DILUPBiCGStab:  Solving for omega, Initial residual = 0.000140023, Final residual = 3.18871e-09, No Iterations 2
DILUPBiCGStab:  Solving for k, Initial residual = 0.0074597, Final residual = 7.11577e-09, No Iterations 3

ExecutionTime = 2.37 s  ClockTime = 2 s

    Overall     = 0.00173843, 0.01
Time = 268

diagonal:  Solving for rho, Initial residual = 0, Final residual = 0, No Iterations 0

Execution time for mesh.update() = 0 s

DILUPBiCGStab:  Solving for Ux, Initial residual = 0.0059704, Final residual = 1.02575e-09, No Iterations 3
DILUPBiCGStab:  Solving for Uy, Initial residual = 0.00853562, Final residual = 3.13509e-09, No Iterations 3
DILUPBiCGStab:  Solving for O2, Initial residual = 0.00317626, Final residual = 4.50527e-09, No Iterations 3
DILUPBiCGStab:  Solving for H2O, Initial residual = 0.00317651, Final residual = 4.50569e-09, No Iterations 3
DILUPBiCGStab:  Solving for CH4, Initial residual = 0, Final residual = 0, No Iterations 0
DILUPBiCGStab:  Solving for CO2, Initial residual = 0.00317651, Final residual = 4.5057e-09, No Iterations 3
DILUPBiCGStab:  Solving for h, Initial residual = 0.00367967, Final residual = 4.78627e-09, No Iterations 3
min/max(T) = 299.642, 1044.98
GAMGPCG:  Solving for p_rgh, Initial residual = 0.0230967, Final residual = 6.25044e-07, No Iterations 4
diagonal:  Solving for rho, Initial residual = 0, Final residual = 0, No Iterations 0
time step continuity errors : sum local = 3.49032e-08, global = -1.07505e-09, cumulative = -2.73945e-07
GAMGPCG:  Solving for p_rgh, Initial residual = 0.00297425, Final residual = 1.97169e-07, No Iterations 4
diagonal:  Solving for rho, Initial residual = 0, Final residual = 0, No Iterations 0
time step continuity errors : sum local = 1.04252e-08, global = 1.57299e-09, cumulative = -2.72372e-07
DILUPBiCGStab:  Solving for omega, Initial residual = 0.000140392, Final residual = 3.22768e-09, No Iterations 2
DILUPBiCGStab:  Solving for k, Initial residual = 0.00748499, Final residual = 5.54649e-09, No Iterations 3

ExecutionTime = 2.49 s  ClockTime = 2 s

    Overall     = 0.00172669, 0.01
Time = 269

diagonal:  Solving for rho, Initial residual = 0, Final residual = 0, No Iterations 0

Execution time for mesh.update() = 0 s

DILUPBiCGStab:  Solving for Ux, Initial residual = 0.00594935, Final residual = 1.10682e-09, No Iterations 3
DILUPBiCGStab:  Solving for Uy, Initial residual = 0.00853305, Final residual = 2.64805e-09, No Iterations 3
DILUPBiCGStab:  Solving for O2, Initial residual = 0.00317503, Final residual = 3.81204e-09, No Iterations 3
DILUPBiCGStab:  Solving for H2O, Initial residual = 0.00317529, Final residual = 3.8123e-09, No Iterations 3
DILUPBiCGStab:  Solving for CH4, Initial residual = 0, Final residual = 0, No Iterations 0
DILUPBiCGStab:  Solving for CO2, Initial residual = 0.00317529, Final residual = 3.81231e-09, No Iterations 3
DILUPBiCGStab:  Solving for h, Initial residual = 0.00368376, Final residual = 4.08863e-09, No Iterations 3
min/max(T) = 299.635, 1044.98
GAMGPCG:  Solving for p_rgh, Initial residual = 0.0226213, Final residual = 7.2247e-07, No Iterations 4
diagonal:  Solving for rho, Initial residual = 0, Final residual = 0, No Iterations 0
time step continuity errors : sum local = 4.02574e-08, global = -5.29403e-09, cumulative = -2.77666e-07
GAMGPCG:  Solving for p_rgh, Initial residual = 0.00292183, Final residual = 1.92455e-07, No Iterations 4
diagonal:  Solving for rho, Initial residual = 0, Final residual = 0, No Iterations 0
time step continuity errors : sum local = 1.0091e-08, global = 1.66896e-09, cumulative = -2.75997e-07
DILUPBiCGStab:  Solving for omega, Initial residual = 0.000139328, Final residual = 3.31014e-09, No Iterations 2
DILUPBiCGStab:  Solving for k, Initial residual = 0.0075012, Final residual = 1.13842e-09, No Iterations 3

ExecutionTime = 2.61 s  ClockTime = 2 s

    Overall     = 0.00171375, 0.01
Time = 270

diagonal:  Solving for rho, Initial residual = 0, Final residual = 0, No Iterations 0

Execution time for mesh.update() = 0 s

DILUPBiCGStab:  Solving for Ux, Initial residual = 0.00594572, Final residual = 1.12966e-09, No Iterations 3
DILUPBiCGStab:  Solving for Uy, Initial residual = 0.00851919, Final residual = 1.60514e-09, No Iterations 3
GAMGPCG:  Solving for G, Initial residual = 0.163465, Final residual = 5.01694e-05, No Iterations 6
DILUPBiCGStab:  Solving for O2, Initial residual = 0.00317699, Final residual = 4.15091e-09, No Iterations 3
DILUPBiCGStab:  Solving for H2O, Initial residual = 0.00317725, Final residual = 4.15127e-09, No Iterations 3
DILUPBiCGStab:  Solving for CH4, Initial residual = 0, Final residual = 0, No Iterations 0
DILUPBiCGStab:  Solving for CO2, Initial residual = 0.00317725, Final residual = 4.15128e-09, No Iterations 3
DILUPBiCGStab:  Solving for h, Initial residual = 0.00368791, Final residual = 4.42996e-09, No Iterations 3
min/max(T) = 299.625, 1044.98
GAMGPCG:  Solving for p_rgh, Initial residual = 0.0228212, Final residual = 7.27675e-07, No Iterations 4
diagonal:  Solving for rho, Initial residual = 0, Final residual = 0, No Iterations 0
time step continuity errors : sum local = 4.0156e-08, global = -2.00243e-10, cumulative = -2.76197e-07
GAMGPCG:  Solving for p_rgh, Initial residual = 0.00302455, Final residual = 1.78628e-07, No Iterations 4
diagonal:  Solving for rho, Initial residual = 0, Final residual = 0, No Iterations 0
time step continuity errors : sum local = 9.48226e-09, global = 1.54513e-09, cumulative = -2.74652e-07
DILUPBiCGStab:  Solving for omega, Initial residual = 0.00013901, Final residual = 3.30216e-09, No Iterations 2
DILUPBiCGStab:  Solving for k, Initial residual = 0.00750695, Final residual = 7.29675e-09, No Iterations 3

ExecutionTime = 2.86 s  ClockTime = 3 s

    Overall     = 0.00170041, 0.01
Time = 271

diagonal:  Solving for rho, Initial residual = 0, Final residual = 0, No Iterations 0

Execution time for mesh.update() = 0 s

DILUPBiCGStab:  Solving for Ux, Initial residual = 0.0059507, Final residual = 1.27797e-09, No Iterations 3
DILUPBiCGStab:  Solving for Uy, Initial residual = 0.00852106, Final residual = 1.90068e-09, No Iterations 3
DILUPBiCGStab:  Solving for O2, Initial residual = 0.00318225, Final residual = 4.19219e-09, No Iterations 3
DILUPBiCGStab:  Solving for H2O, Initial residual = 0.00318252, Final residual = 4.19251e-09, No Iterations 3
DILUPBiCGStab:  Solving for CH4, Initial residual = 0, Final residual = 0, No Iterations 0
DILUPBiCGStab:  Solving for CO2, Initial residual = 0.00318252, Final residual = 4.19251e-09, No Iterations 3
DILUPBiCGStab:  Solving for h, Initial residual = 0.00368943, Final residual = 4.51457e-09, No Iterations 3
min/max(T) = 299.616, 1044.98
GAMGPCG:  Solving for p_rgh, Initial residual = 0.0222673, Final residual = 6.48916e-07, No Iterations 4
diagonal:  Solving for rho, Initial residual = 0, Final residual = 0, No Iterations 0
time step continuity errors : sum local = 3.60656e-08, global = -2.84502e-10, cumulative = -2.74936e-07
GAMGPCG:  Solving for p_rgh, Initial residual = 0.0030163, Final residual = 1.687e-07, No Iterations 4
diagonal:  Solving for rho, Initial residual = 0, Final residual = 0, No Iterations 0
time step continuity errors : sum local = 8.92802e-09, global = 1.37874e-09, cumulative = -2.73557e-07
DILUPBiCGStab:  Solving for omega, Initial residual = 0.000139224, Final residual = 3.35787e-09, No Iterations 2
DILUPBiCGStab:  Solving for k, Initial residual = 0.00753073, Final residual = 6.18237e-09, No Iterations 3

ExecutionTime = 2.97 s  ClockTime = 3 s

    Overall     = 0.00168701, 0.01
Time = 272

diagonal:  Solving for rho, Initial residual = 0, Final residual = 0, No Iterations 0

Execution time for mesh.update() = 0 s

DILUPBiCGStab:  Solving for Ux, Initial residual = 0.00594869, Final residual = 1.13593e-09, No Iterations 3
DILUPBiCGStab:  Solving for Uy, Initial residual = 0.00849633, Final residual = 1.59861e-09, No Iterations 3
DILUPBiCGStab:  Solving for O2, Initial residual = 0.00318702, Final residual = 4.54645e-09, No Iterations 3
DILUPBiCGStab:  Solving for H2O, Initial residual = 0.0031873, Final residual = 4.54686e-09, No Iterations 3
DILUPBiCGStab:  Solving for CH4, Initial residual = 0, Final residual = 0, No Iterations 0
DILUPBiCGStab:  Solving for CO2, Initial residual = 0.0031873, Final residual = 4.54686e-09, No Iterations 3
DILUPBiCGStab:  Solving for h, Initial residual = 0.00369995, Final residual = 4.86381e-09, No Iterations 3
min/max(T) = 299.605, 1044.98
GAMGPCG:  Solving for p_rgh, Initial residual = 0.0226693, Final residual = 6.76777e-07, No Iterations 4
diagonal:  Solving for rho, Initial residual = 0, Final residual = 0, No Iterations 0
time step continuity errors : sum local = 3.76581e-08, global = 8.43255e-10, cumulative = -2.72714e-07
GAMGPCG:  Solving for p_rgh, Initial residual = 0.0030257, Final residual = 1.69455e-07, No Iterations 4
diagonal:  Solving for rho, Initial residual = 0, Final residual = 0, No Iterations 0
time step continuity errors : sum local = 9.07767e-09, global = 1.65965e-09, cumulative = -2.71055e-07
DILUPBiCGStab:  Solving for omega, Initial residual = 0.000139254, Final residual = 3.38764e-09, No Iterations 2
DILUPBiCGStab:  Solving for k, Initial residual = 0.00755836, Final residual = 5.16527e-09, No Iterations 3

ExecutionTime = 3.09 s  ClockTime = 3 s

    Overall     = 0.00167357, 0.01
Time = 273

diagonal:  Solving for rho, Initial residual = 0, Final residual = 0, No Iterations 0

Execution time for mesh.update() = 0 s

DILUPBiCGStab:  Solving for Ux, Initial residual = 0.00595084, Final residual = 1.18086e-09, No Iterations 3
DILUPBiCGStab:  Solving for Uy, Initial residual = 0.00850176, Final residual = 1.47985e-09, No Iterations 3
DILUPBiCGStab:  Solving for O2, Initial residual = 0.00319488, Final residual = 4.95733e-09, No Iterations 3
DILUPBiCGStab:  Solving for H2O, Initial residual = 0.00319517, Final residual = 4.95783e-09, No Iterations 3
DILUPBiCGStab:  Solving for CH4, Initial residual = 0, Final residual = 0, No Iterations 0
DILUPBiCGStab:  Solving for CO2, Initial residual = 0.00319517, Final residual = 4.95783e-09, No Iterations 3
DILUPBiCGStab:  Solving for h, Initial residual = 0.003709, Final residual = 5.40324e-09, No Iterations 3
min/max(T) = 299.595, 1044.98
GAMGPCG:  Solving for p_rgh, Initial residual = 0.0224701, Final residual = 7.09721e-07, No Iterations 4
diagonal:  Solving for rho, Initial residual = 0, Final residual = 0, No Iterations 0
time step continuity errors : sum local = 4.02094e-08, global = -5.2445e-09, cumulative = -2.76299e-07
GAMGPCG:  Solving for p_rgh, Initial residual = 0.00304484, Final residual = 1.62938e-07, No Iterations 4
diagonal:  Solving for rho, Initial residual = 0, Final residual = 0, No Iterations 0
time step continuity errors : sum local = 8.76642e-09, global = 1.84106e-09, cumulative = -2.74458e-07
DILUPBiCGStab:  Solving for omega, Initial residual = 0.000139349, Final residual = 3.44252e-09, No Iterations 2
DILUPBiCGStab:  Solving for k, Initial residual = 0.00758477, Final residual = 6.02841e-09, No Iterations 3

ExecutionTime = 3.21 s  ClockTime = 3 s

    Overall     = 0.0016599, 0.01
Time = 274

diagonal:  Solving for rho, Initial residual = 0, Final residual = 0, No Iterations 0

Execution time for mesh.update() = 0 s

DILUPBiCGStab:  Solving for Ux, Initial residual = 0.00595587, Final residual = 1.05148e-09, No Iterations 3
DILUPBiCGStab:  Solving for Uy, Initial residual = 0.00849891, Final residual = 1.46663e-09, No Iterations 3
DILUPBiCGStab:  Solving for O2, Initial residual = 0.003203, Final residual = 5.44989e-09, No Iterations 3
DILUPBiCGStab:  Solving for H2O, Initial residual = 0.00320329, Final residual = 5.45054e-09, No Iterations 3
DILUPBiCGStab:  Solving for CH4, Initial residual = 0, Final residual = 0, No Iterations 0
DILUPBiCGStab:  Solving for CO2, Initial residual = 0.00320329, Final residual = 5.45055e-09, No Iterations 3
DILUPBiCGStab:  Solving for h, Initial residual = 0.00371867, Final residual = 5.81306e-09, No Iterations 3
min/max(T) = 299.584, 1044.98
GAMGPCG:  Solving for p_rgh, Initial residual = 0.0226752, Final residual = 5.70597e-07, No Iterations 4
diagonal:  Solving for rho, Initial residual = 0, Final residual = 0, No Iterations 0
time step continuity errors : sum local = 3.23602e-08, global = -1.00442e-10, cumulative = -2.74558e-07
GAMGPCG:  Solving for p_rgh, Initial residual = 0.00311251, Final residual = 1.49773e-07, No Iterations 4
diagonal:  Solving for rho, Initial residual = 0, Final residual = 0, No Iterations 0
time step continuity errors : sum local = 8.14765e-09, global = 1.7262e-09, cumulative = -2.72832e-07
DILUPBiCGStab:  Solving for omega, Initial residual = 0.000139236, Final residual = 3.36541e-09, No Iterations 2
DILUPBiCGStab:  Solving for k, Initial residual = 0.00760597, Final residual = 6.21345e-09, No Iterations 3

ExecutionTime = 3.32 s  ClockTime = 3 s

    Overall     = 0.00164651, 0.01
Time = 275

diagonal:  Solving for rho, Initial residual = 0, Final residual = 0, No Iterations 0

Execution time for mesh.update() = 0 s

DILUPBiCGStab:  Solving for Ux, Initial residual = 0.00597236, Final residual = 1.05014e-09, No Iterations 3
DILUPBiCGStab:  Solving for Uy, Initial residual = 0.00850185, Final residual = 1.64208e-09, No Iterations 3
DILUPBiCGStab:  Solving for O2, Initial residual = 0.00321487, Final residual = 5.68838e-09, No Iterations 3
DILUPBiCGStab:  Solving for H2O, Initial residual = 0.00321517, Final residual = 5.68906e-09, No Iterations 3
DILUPBiCGStab:  Solving for CH4, Initial residual = 0, Final residual = 0, No Iterations 0
DILUPBiCGStab:  Solving for CO2, Initial residual = 0.00321517, Final residual = 5.68906e-09, No Iterations 3
DILUPBiCGStab:  Solving for h, Initial residual = 0.00373686, Final residual = 5.86349e-09, No Iterations 3
min/max(T) = 299.574, 1044.98
GAMGPCG:  Solving for p_rgh, Initial residual = 0.0227733, Final residual = 7.1373e-07, No Iterations 4
diagonal:  Solving for rho, Initial residual = 0, Final residual = 0, No Iterations 0
time step continuity errors : sum local = 4.11257e-08, global = -3.78024e-09, cumulative = -2.76612e-07
GAMGPCG:  Solving for p_rgh, Initial residual = 0.00313685, Final residual = 1.77426e-07, No Iterations 4
diagonal:  Solving for rho, Initial residual = 0, Final residual = 0, No Iterations 0
time step continuity errors : sum local = 9.67157e-09, global = 2.11776e-09, cumulative = -2.74495e-07
DILUPBiCGStab:  Solving for omega, Initial residual = 0.000139577, Final residual = 3.27056e-09, No Iterations 2
DILUPBiCGStab:  Solving for k, Initial residual = 0.00763268, Final residual = 6.74758e-09, No Iterations 3

ExecutionTime = 3.44 s  ClockTime = 3 s

    Overall     = 0.00163349, 0.01
Time = 276

diagonal:  Solving for rho, Initial residual = 0, Final residual = 0, No Iterations 0

Execution time for mesh.update() = 0 s

DILUPBiCGStab:  Solving for Ux, Initial residual = 0.00597117, Final residual = 1.06493e-09, No Iterations 3
DILUPBiCGStab:  Solving for Uy, Initial residual = 0.00847497, Final residual = 1.64772e-09, No Iterations 3
DILUPBiCGStab:  Solving for O2, Initial residual = 0.00322141, Final residual = 6.28054e-09, No Iterations 3
DILUPBiCGStab:  Solving for H2O, Initial residual = 0.00322172, Final residual = 6.28123e-09, No Iterations 3
DILUPBiCGStab:  Solving for CH4, Initial residual = 0, Final residual = 0, No Iterations 0
DILUPBiCGStab:  Solving for CO2, Initial residual = 0.00322172, Final residual = 6.28124e-09, No Iterations 3
DILUPBiCGStab:  Solving for h, Initial residual = 0.00374641, Final residual = 6.76685e-09, No Iterations 3
min/max(T) = 299.563, 1044.98
GAMGPCG:  Solving for p_rgh, Initial residual = 0.0224109, Final residual = 5.93788e-07, No Iterations 4
diagonal:  Solving for rho, Initial residual = 0, Final residual = 0, No Iterations 0
time step continuity errors : sum local = 3.43298e-08, global = -4.86189e-09, cumulative = -2.79357e-07
GAMGPCG:  Solving for p_rgh, Initial residual = 0.00316573, Final residual = 1.80499e-07, No Iterations 4
diagonal:  Solving for rho, Initial residual = 0, Final residual = 0, No Iterations 0
time step continuity errors : sum local = 9.88e-09, global = 2.21549e-09, cumulative = -2.77141e-07
DILUPBiCGStab:  Solving for omega, Initial residual = 0.000140121, Final residual = 3.24517e-09, No Iterations 2
DILUPBiCGStab:  Solving for k, Initial residual = 0.00764344, Final residual = 6.09931e-09, No Iterations 3

ExecutionTime = 3.56 s  ClockTime = 3 s

    Overall     = 0.00162084, 0.01
Time = 277

diagonal:  Solving for rho, Initial residual = 0, Final residual = 0, No Iterations 0

Execution time for mesh.update() = 0 s

DILUPBiCGStab:  Solving for Ux, Initial residual = 0.00597854, Final residual = 1.12377e-09, No Iterations 3
DILUPBiCGStab:  Solving for Uy, Initial residual = 0.00846605, Final residual = 1.73843e-09, No Iterations 3
DILUPBiCGStab:  Solving for O2, Initial residual = 0.00323592, Final residual = 6.12535e-09, No Iterations 3
DILUPBiCGStab:  Solving for H2O, Initial residual = 0.00323625, Final residual = 6.12601e-09, No Iterations 3
DILUPBiCGStab:  Solving for CH4, Initial residual = 0, Final residual = 0, No Iterations 0
DILUPBiCGStab:  Solving for CO2, Initial residual = 0.00323625, Final residual = 6.12601e-09, No Iterations 3
DILUPBiCGStab:  Solving for h, Initial residual = 0.00376174, Final residual = 6.4236e-09, No Iterations 3
min/max(T) = 299.553, 1044.98
GAMGPCG:  Solving for p_rgh, Initial residual = 0.0224042, Final residual = 6.32306e-07, No Iterations 4
diagonal:  Solving for rho, Initial residual = 0, Final residual = 0, No Iterations 0
time step continuity errors : sum local = 3.66424e-08, global = -4.36024e-09, cumulative = -2.81501e-07
GAMGPCG:  Solving for p_rgh, Initial residual = 0.00317652, Final residual = 1.86745e-07, No Iterations 4
diagonal:  Solving for rho, Initial residual = 0, Final residual = 0, No Iterations 0
time step continuity errors : sum local = 1.01973e-08, global = 2.21594e-09, cumulative = -2.79285e-07
DILUPBiCGStab:  Solving for omega, Initial residual = 0.000140311, Final residual = 3.1807e-09, No Iterations 2
DILUPBiCGStab:  Solving for k, Initial residual = 0.00766056, Final residual = 9.67505e-10, No Iterations 3

ExecutionTime = 3.67 s  ClockTime = 4 s

    Overall     = 0.00160842, 0.01
Time = 278

diagonal:  Solving for rho, Initial residual = 0, Final residual = 0, No Iterations 0

Execution time for mesh.update() = 0 s

DILUPBiCGStab:  Solving for Ux, Initial residual = 0.00598508, Final residual = 1.03519e-09, No Iterations 3
DILUPBiCGStab:  Solving for Uy, Initial residual = 0.00844953, Final residual = 1.67294e-09, No Iterations 3
DILUPBiCGStab:  Solving for O2, Initial residual = 0.00324769, Final residual = 5.69982e-09, No Iterations 3
DILUPBiCGStab:  Solving for H2O, Initial residual = 0.00324803, Final residual = 5.70049e-09, No Iterations 3
DILUPBiCGStab:  Solving for CH4, Initial residual = 0, Final residual = 0, No Iterations 0
DILUPBiCGStab:  Solving for CO2, Initial residual = 0.00324803, Final residual = 5.7005e-09, No Iterations 3
DILUPBiCGStab:  Solving for h, Initial residual = 0.00377587, Final residual = 5.90192e-09, No Iterations 3
min/max(T) = 299.541, 1044.98
GAMGPCG:  Solving for p_rgh, Initial residual = 0.0224908, Final residual = 6.01182e-07, No Iterations 4
diagonal:  Solving for rho, Initial residual = 0, Final residual = 0, No Iterations 0
time step continuity errors : sum local = 3.49956e-08, global = -4.1047e-09, cumulative = -2.8339e-07
GAMGPCG:  Solving for p_rgh, Initial residual = 0.00327084, Final residual = 1.71705e-07, No Iterations 4
diagonal:  Solving for rho, Initial residual = 0, Final residual = 0, No Iterations 0
time step continuity errors : sum local = 9.38218e-09, global = 2.0567e-09, cumulative = -2.81333e-07
DILUPBiCGStab:  Solving for omega, Initial residual = 0.000139855, Final residual = 2.96597e-09, No Iterations 2
DILUPBiCGStab:  Solving for k, Initial residual = 0.00766967, Final residual = 1.63557e-09, No Iterations 3

ExecutionTime = 3.79 s  ClockTime = 4 s

    Overall     = 0.00159653, 0.01
Time = 279

diagonal:  Solving for rho, Initial residual = 0, Final residual = 0, No Iterations 0

Execution time for mesh.update() = 0 s

DILUPBiCGStab:  Solving for Ux, Initial residual = 0.00600029, Final residual = 9.92512e-09, No Iterations 3
DILUPBiCGStab:  Solving for Uy, Initial residual = 0.00845204, Final residual = 1.61606e-09, No Iterations 3
DILUPBiCGStab:  Solving for O2, Initial residual = 0.00325478, Final residual = 4.10311e-09, No Iterations 3
DILUPBiCGStab:  Solving for H2O, Initial residual = 0.00325514, Final residual = 4.10352e-09, No Iterations 3
DILUPBiCGStab:  Solving for CH4, Initial residual = 0, Final residual = 0, No Iterations 0
DILUPBiCGStab:  Solving for CO2, Initial residual = 0.00325514, Final residual = 4.10352e-09, No Iterations 3
DILUPBiCGStab:  Solving for h, Initial residual = 0.00378192, Final residual = 4.31144e-09, No Iterations 3
min/max(T) = 299.531, 1044.98
GAMGPCG:  Solving for p_rgh, Initial residual = 0.0223238, Final residual = 6.26328e-07, No Iterations 4
diagonal:  Solving for rho, Initial residual = 0, Final residual = 0, No Iterations 0
time step continuity errors : sum local = 3.63559e-08, global = -3.97172e-09, cumulative = -2.85305e-07
GAMGPCG:  Solving for p_rgh, Initial residual = 0.00326602, Final residual = 1.85335e-07, No Iterations 4
diagonal:  Solving for rho, Initial residual = 0, Final residual = 0, No Iterations 0
time step continuity errors : sum local = 1.00376e-08, global = 2.1064e-09, cumulative = -2.83199e-07
DILUPBiCGStab:  Solving for omega, Initial residual = 0.000140844, Final residual = 2.69812e-09, No Iterations 2
DILUPBiCGStab:  Solving for k, Initial residual = 0.00769354, Final residual = 1.20905e-09, No Iterations 3

ExecutionTime = 3.91 s  ClockTime = 4 s

    Overall     = 0.00158552, 0.01
Time = 280

diagonal:  Solving for rho, Initial residual = 0, Final residual = 0, No Iterations 0

Execution time for mesh.update() = 0 s

DILUPBiCGStab:  Solving for Ux, Initial residual = 0.00600658, Final residual = 9.46315e-09, No Iterations 3
DILUPBiCGStab:  Solving for Uy, Initial residual = 0.00843193, Final residual = 1.65042e-09, No Iterations 3
GAMGPCG:  Solving for G, Initial residual = 0.192994, Final residual = 5.22745e-05, No Iterations 6
DILUPBiCGStab:  Solving for O2, Initial residual = 0.00326212, Final residual = 4.45416e-09, No Iterations 3
DILUPBiCGStab:  Solving for H2O, Initial residual = 0.00326249, Final residual = 4.45462e-09, No Iterations 3
DILUPBiCGStab:  Solving for CH4, Initial residual = 0, Final residual = 0, No Iterations 0
DILUPBiCGStab:  Solving for CO2, Initial residual = 0.00326249, Final residual = 4.45463e-09, No Iterations 3
DILUPBiCGStab:  Solving for h, Initial residual = 0.00379159, Final residual = 4.69502e-09, No Iterations 3
min/max(T) = 299.52, 1044.98
GAMGPCG:  Solving for p_rgh, Initial residual = 0.0223108, Final residual = 5.85209e-07, No Iterations 4
diagonal:  Solving for rho, Initial residual = 0, Final residual = 0, No Iterations 0
time step continuity errors : sum local = 3.37916e-08, global = -3.2348e-09, cumulative = -2.86434e-07
GAMGPCG:  Solving for p_rgh, Initial residual = 0.00329247, Final residual = 2.03735e-07, No Iterations 4
diagonal:  Solving for rho, Initial residual = 0, Final residual = 0, No Iterations 0
time step continuity errors : sum local = 1.09555e-08, global = 2.282e-09, cumulative = -2.84152e-07
DILUPBiCGStab:  Solving for omega, Initial residual = 0.000140909, Final residual = 2.60112e-09, No Iterations 2
DILUPBiCGStab:  Solving for k, Initial residual = 0.00771986, Final residual = 8.48326e-09, No Iterations 3

ExecutionTime = 4.16 s  ClockTime = 4 s

    Overall     = 0.00157484, 0.01
Time = 281

diagonal:  Solving for rho, Initial residual = 0, Final residual = 0, No Iterations 0

Execution time for mesh.update() = 0 s

DILUPBiCGStab:  Solving for Ux, Initial residual = 0.00601516, Final residual = 8.52851e-09, No Iterations 3
DILUPBiCGStab:  Solving for Uy, Initial residual = 0.00840282, Final residual = 1.89841e-09, No Iterations 3
DILUPBiCGStab:  Solving for O2, Initial residual = 0.00327412, Final residual = 3.49361e-09, No Iterations 3
DILUPBiCGStab:  Solving for H2O, Initial residual = 0.00327451, Final residual = 3.4939e-09, No Iterations 3
DILUPBiCGStab:  Solving for CH4, Initial residual = 0, Final residual = 0, No Iterations 0
DILUPBiCGStab:  Solving for CO2, Initial residual = 0.00327451, Final residual = 3.4939e-09, No Iterations 3
DILUPBiCGStab:  Solving for h, Initial residual = 0.00380851, Final residual = 3.76088e-09, No Iterations 3
min/max(T) = 299.509, 1044.98
GAMGPCG:  Solving for p_rgh, Initial residual = 0.0221402, Final residual = 6.4999e-07, No Iterations 4
diagonal:  Solving for rho, Initial residual = 0, Final residual = 0, No Iterations 0
time step continuity errors : sum local = 3.72518e-08, global = -2.88487e-09, cumulative = -2.87036e-07
GAMGPCG:  Solving for p_rgh, Initial residual = 0.00326095, Final residual = 2.47295e-07, No Iterations 4
diagonal:  Solving for rho, Initial residual = 0, Final residual = 0, No Iterations 0
time step continuity errors : sum local = 1.33483e-08, global = 2.43305e-09, cumulative = -2.84603e-07
DILUPBiCGStab:  Solving for omega, Initial residual = 0.000141261, Final residual = 2.41855e-09, No Iterations 2
DILUPBiCGStab:  Solving for k, Initial residual = 0.00773946, Final residual = 2.46674e-09, No Iterations 3

ExecutionTime = 4.28 s  ClockTime = 4 s

    Overall     = 0.00156364, 0.01
Time = 282

diagonal:  Solving for rho, Initial residual = 0, Final residual = 0, No Iterations 0

Execution time for mesh.update() = 0 s

DILUPBiCGStab:  Solving for Ux, Initial residual = 0.00601153, Final residual = 8.75815e-09, No Iterations 3
DILUPBiCGStab:  Solving for Uy, Initial residual = 0.00835253, Final residual = 1.93855e-09, No Iterations 3
DILUPBiCGStab:  Solving for O2, Initial residual = 0.00328418, Final residual = 3.78551e-09, No Iterations 3
DILUPBiCGStab:  Solving for H2O, Initial residual = 0.00328457, Final residual = 3.7858e-09, No Iterations 3
DILUPBiCGStab:  Solving for CH4, Initial residual = 0, Final residual = 0, No Iterations 0
DILUPBiCGStab:  Solving for CO2, Initial residual = 0.00328457, Final residual = 3.78581e-09, No Iterations 3
DILUPBiCGStab:  Solving for h, Initial residual = 0.00382099, Final residual = 3.83298e-09, No Iterations 3
min/max(T) = 299.499, 1044.98
GAMGPCG:  Solving for p_rgh, Initial residual = 0.021388, Final residual = 5.84616e-07, No Iterations 4
diagonal:  Solving for rho, Initial residual = 0, Final residual = 0, No Iterations 0
time step continuity errors : sum local = 3.35646e-08, global = -2.40458e-09, cumulative = -2.87008e-07
GAMGPCG:  Solving for p_rgh, Initial residual = 0.0032968, Final residual = 2.47345e-07, No Iterations 4
diagonal:  Solving for rho, Initial residual = 0, Final residual = 0, No Iterations 0
time step continuity errors : sum local = 1.34853e-08, global = 2.65e-09, cumulative = -2.84358e-07
DILUPBiCGStab:  Solving for omega, Initial residual = 0.00014168, Final residual = 2.72711e-09, No Iterations 2
DILUPBiCGStab:  Solving for k, Initial residual = 0.00776684, Final residual = 6.01138e-09, No Iterations 3

ExecutionTime = 4.4 s  ClockTime = 4 s

    Overall     = 0.00155253, 0.01
Time = 283

diagonal:  Solving for rho, Initial residual = 0, Final residual = 0, No Iterations 0

Execution time for mesh.update() = 0 s

DILUPBiCGStab:  Solving for Ux, Initial residual = 0.00602128, Final residual = 9.518e-09, No Iterations 3
DILUPBiCGStab:  Solving for Uy, Initial residual = 0.00828931, Final residual = 2.37049e-09, No Iterations 3
DILUPBiCGStab:  Solving for O2, Initial residual = 0.00329773, Final residual = 4.20087e-09, No Iterations 3
DILUPBiCGStab:  Solving for H2O, Initial residual = 0.00329813, Final residual = 4.2011e-09, No Iterations 3
DILUPBiCGStab:  Solving for CH4, Initial residual = 0, Final residual = 0, No Iterations 0
DILUPBiCGStab:  Solving for CO2, Initial residual = 0.00329813, Final residual = 4.2011e-09, No Iterations 3
DILUPBiCGStab:  Solving for h, Initial residual = 0.00383905, Final residual = 4.5342e-09, No Iterations 3
min/max(T) = 299.487, 1044.98
GAMGPCG:  Solving for p_rgh, Initial residual = 0.0212712, Final residual = 7.23221e-07, No Iterations 4
diagonal:  Solving for rho, Initial residual = 0, Final residual = 0, No Iterations 0
time step continuity errors : sum local = 4.10282e-08, global = -2.54124e-09, cumulative = -2.86899e-07
GAMGPCG:  Solving for p_rgh, Initial residual = 0.00326344, Final residual = 2.75231e-07, No Iterations 4
diagonal:  Solving for rho, Initial residual = 0, Final residual = 0, No Iterations 0
time step continuity errors : sum local = 1.50683e-08, global = 2.44886e-09, cumulative = -2.8445e-07
DILUPBiCGStab:  Solving for omega, Initial residual = 0.000142408, Final residual = 2.53713e-09, No Iterations 2
DILUPBiCGStab:  Solving for k, Initial residual = 0.00780268, Final residual = 1.4969e-09, No Iterations 3

ExecutionTime = 4.51 s  ClockTime = 4 s

    Overall     = 0.00154289, 0.01
Time = 284

diagonal:  Solving for rho, Initial residual = 0, Final residual = 0, No Iterations 0

Execution time for mesh.update() = 0 s

DILUPBiCGStab:  Solving for Ux, Initial residual = 0.00602028, Final residual = 8.61305e-09, No Iterations 3
DILUPBiCGStab:  Solving for Uy, Initial residual = 0.00826069, Final residual = 1.36873e-09, No Iterations 3
DILUPBiCGStab:  Solving for O2, Initial residual = 0.00330952, Final residual = 3.80984e-09, No Iterations 3
DILUPBiCGStab:  Solving for H2O, Initial residual = 0.00330993, Final residual = 3.81004e-09, No Iterations 3
DILUPBiCGStab:  Solving for CH4, Initial residual = 0, Final residual = 0, No Iterations 0
DILUPBiCGStab:  Solving for CO2, Initial residual = 0.00330993, Final residual = 3.81005e-09, No Iterations 3
DILUPBiCGStab:  Solving for h, Initial residual = 0.00385827, Final residual = 4.14593e-09, No Iterations 3
min/max(T) = 299.48, 1044.98
GAMGPCG:  Solving for p_rgh, Initial residual = 0.0210338, Final residual = 7.32126e-07, No Iterations 4
diagonal:  Solving for rho, Initial residual = 0, Final residual = 0, No Iterations 0
time step continuity errors : sum local = 4.13987e-08, global = -2.08855e-09, cumulative = -2.86539e-07
GAMGPCG:  Solving for p_rgh, Initial residual = 0.00322411, Final residual = 2.70586e-07, No Iterations 4
diagonal:  Solving for rho, Initial residual = 0, Final residual = 0, No Iterations 0
time step continuity errors : sum local = 1.47896e-08, global = 2.22823e-09, cumulative = -2.84311e-07
DILUPBiCGStab:  Solving for omega, Initial residual = 0.000141918, Final residual = 2.50069e-09, No Iterations 2
DILUPBiCGStab:  Solving for k, Initial residual = 0.00783403, Final residual = 1.58031e-09, No Iterations 3

ExecutionTime = 4.63 s  ClockTime = 4 s

    Overall     = 0.0015323, 0.01
Time = 285

diagonal:  Solving for rho, Initial residual = 0, Final residual = 0, No Iterations 0

Execution time for mesh.update() = 0 s

DILUPBiCGStab:  Solving for Ux, Initial residual = 0.00603566, Final residual = 8.59251e-09, No Iterations 3
DILUPBiCGStab:  Solving for Uy, Initial residual = 0.00822035, Final residual = 9.20535e-10, No Iterations 3
DILUPBiCGStab:  Solving for O2, Initial residual = 0.00332114, Final residual = 4.17896e-09, No Iterations 3
DILUPBiCGStab:  Solving for H2O, Initial residual = 0.00332156, Final residual = 4.17906e-09, No Iterations 3
DILUPBiCGStab:  Solving for CH4, Initial residual = 0, Final residual = 0, No Iterations 0
DILUPBiCGStab:  Solving for CO2, Initial residual = 0.00332156, Final residual = 4.17906e-09, No Iterations 3
DILUPBiCGStab:  Solving for h, Initial residual = 0.00386806, Final residual = 4.44887e-09, No Iterations 3
min/max(T) = 299.47, 1044.98
GAMGPCG:  Solving for p_rgh, Initial residual = 0.0208168, Final residual = 7.69574e-07, No Iterations 4
diagonal:  Solving for rho, Initial residual = 0, Final residual = 0, No Iterations 0
time step continuity errors : sum local = 4.32813e-08, global = -3.5841e-09, cumulative = -2.87895e-07
GAMGPCG:  Solving for p_rgh, Initial residual = 0.00321158, Final residual = 3.17946e-07, No Iterations 4
diagonal:  Solving for rho, Initial residual = 0, Final residual = 0, No Iterations 0
time step continuity errors : sum local = 1.75251e-08, global = 2.01969e-09, cumulative = -2.85875e-07
DILUPBiCGStab:  Solving for omega, Initial residual = 0.000141851, Final residual = 2.32872e-09, No Iterations 2
DILUPBiCGStab:  Solving for k, Initial residual = 0.00786499, Final residual = 6.67261e-09, No Iterations 3

ExecutionTime = 4.74 s  ClockTime = 5 s

    Overall     = 0.00152394, 0.01
Time = 286

diagonal:  Solving for rho, Initial residual = 0, Final residual = 0, No Iterations 0

Execution time for mesh.update() = 0 s

DILUPBiCGStab:  Solving for Ux, Initial residual = 0.00603367, Final residual = 8.13347e-09, No Iterations 3
DILUPBiCGStab:  Solving for Uy, Initial residual = 0.00817158, Final residual = 8.63877e-09, No Iterations 3
DILUPBiCGStab:  Solving for O2, Initial residual = 0.00333093, Final residual = 4.44557e-09, No Iterations 3
DILUPBiCGStab:  Solving for H2O, Initial residual = 0.00333137, Final residual = 4.44567e-09, No Iterations 3
DILUPBiCGStab:  Solving for CH4, Initial residual = 0, Final residual = 0, No Iterations 0
DILUPBiCGStab:  Solving for CO2, Initial residual = 0.00333137, Final residual = 4.44567e-09, No Iterations 3
DILUPBiCGStab:  Solving for h, Initial residual = 0.00388001, Final residual = 4.73424e-09, No Iterations 3
min/max(T) = 299.462, 1044.98
GAMGPCG:  Solving for p_rgh, Initial residual = 0.0208838, Final residual = 8.31511e-07, No Iterations 4
diagonal:  Solving for rho, Initial residual = 0, Final residual = 0, No Iterations 0
time step continuity errors : sum local = 4.70601e-08, global = -2.40122e-09, cumulative = -2.88276e-07
GAMGPCG:  Solving for p_rgh, Initial residual = 0.00315281, Final residual = 3.34235e-07, No Iterations 4
diagonal:  Solving for rho, Initial residual = 0, Final residual = 0, No Iterations 0
time step continuity errors : sum local = 1.85527e-08, global = 1.92008e-09, cumulative = -2.86356e-07
DILUPBiCGStab:  Solving for omega, Initial residual = 0.000142802, Final residual = 2.29423e-09, No Iterations 2
DILUPBiCGStab:  Solving for k, Initial residual = 0.00788154, Final residual = 3.40286e-09, No Iterations 3

ExecutionTime = 4.86 s  ClockTime = 5 s

    Overall     = 0.00151509, 0.01
Time = 287

diagonal:  Solving for rho, Initial residual = 0, Final residual = 0, No Iterations 0

Execution time for mesh.update() = 0 s

DILUPBiCGStab:  Solving for Ux, Initial residual = 0.00604271, Final residual = 8.37534e-09, No Iterations 3
DILUPBiCGStab:  Solving for Uy, Initial residual = 0.00814512, Final residual = 7.85843e-09, No Iterations 3
DILUPBiCGStab:  Solving for O2, Initial residual = 0.00334708, Final residual = 3.92659e-09, No Iterations 3
DILUPBiCGStab:  Solving for H2O, Initial residual = 0.00334752, Final residual = 3.92661e-09, No Iterations 3
DILUPBiCGStab:  Solving for CH4, Initial residual = 0, Final residual = 0, No Iterations 0
DILUPBiCGStab:  Solving for CO2, Initial residual = 0.00334752, Final residual = 3.92662e-09, No Iterations 3
DILUPBiCGStab:  Solving for h, Initial residual = 0.0039011, Final residual = 4.00726e-09, No Iterations 3
min/max(T) = 299.454, 1044.98
GAMGPCG:  Solving for p_rgh, Initial residual = 0.0210262, Final residual = 7.79642e-07, No Iterations 4
diagonal:  Solving for rho, Initial residual = 0, Final residual = 0, No Iterations 0
time step continuity errors : sum local = 4.37585e-08, global = -3.6421e-09, cumulative = -2.89998e-07
GAMGPCG:  Solving for p_rgh, Initial residual = 0.00313611, Final residual = 3.43891e-07, No Iterations 4
diagonal:  Solving for rho, Initial residual = 0, Final residual = 0, No Iterations 0
time step continuity errors : sum local = 1.91823e-08, global = 1.76414e-09, cumulative = -2.88234e-07
DILUPBiCGStab:  Solving for omega, Initial residual = 0.000143008, Final residual = 2.28343e-09, No Iterations 2
DILUPBiCGStab:  Solving for k, Initial residual = 0.00790262, Final residual = 1.42687e-09, No Iterations 3

ExecutionTime = 4.97 s  ClockTime = 5 s

    Overall     = 0.00150817, 0.01
Time = 288

diagonal:  Solving for rho, Initial residual = 0, Final residual = 0, No Iterations 0

Execution time for mesh.update() = 0 s

DILUPBiCGStab:  Solving for Ux, Initial residual = 0.00604379, Final residual = 7.32421e-09, No Iterations 3
DILUPBiCGStab:  Solving for Uy, Initial residual = 0.00813283, Final residual = 7.28799e-09, No Iterations 3
DILUPBiCGStab:  Solving for O2, Initial residual = 0.00335964, Final residual = 3.71347e-09, No Iterations 3
DILUPBiCGStab:  Solving for H2O, Initial residual = 0.00336009, Final residual = 3.71363e-09, No Iterations 3
DILUPBiCGStab:  Solving for CH4, Initial residual = 0, Final residual = 0, No Iterations 0
DILUPBiCGStab:  Solving for CO2, Initial residual = 0.00336009, Final residual = 3.71363e-09, No Iterations 3
DILUPBiCGStab:  Solving for h, Initial residual = 0.00391794, Final residual = 3.57501e-09, No Iterations 3
min/max(T) = 299.449, 1044.98
GAMGPCG:  Solving for p_rgh, Initial residual = 0.0210214, Final residual = 8.43979e-07, No Iterations 4
diagonal:  Solving for rho, Initial residual = 0, Final residual = 0, No Iterations 0
time step continuity errors : sum local = 4.7738e-08, global = -2.23465e-09, cumulative = -2.90469e-07
GAMGPCG:  Solving for p_rgh, Initial residual = 0.00314266, Final residual = 3.55378e-07, No Iterations 4
diagonal:  Solving for rho, Initial residual = 0, Final residual = 0, No Iterations 0
time step continuity errors : sum local = 1.98594e-08, global = 1.74347e-09, cumulative = -2.88725e-07
DILUPBiCGStab:  Solving for omega, Initial residual = 0.000143569, Final residual = 2.20923e-09, No Iterations 2
DILUPBiCGStab:  Solving for k, Initial residual = 0.00791174, Final residual = 4.79547e-09, No Iterations 3

ExecutionTime = 5.09 s  ClockTime = 5 s

    Overall     = 0.00149931, 0.01
Time = 289

diagonal:  Solving for rho, Initial residual = 0, Final residual = 0, No Iterations 0

Execution time for mesh.update() = 0 s

DILUPBiCGStab:  Solving for Ux, Initial residual = 0.00606465, Final residual = 6.88243e-09, No Iterations 3
DILUPBiCGStab:  Solving for Uy, Initial residual = 0.00812541, Final residual = 7.0995e-09, No Iterations 3
DILUPBiCGStab:  Solving for O2, Initial residual = 0.00337881, Final residual = 3.57441e-09, No Iterations 3
DILUPBiCGStab:  Solving for H2O, Initial residual = 0.00337926, Final residual = 3.57446e-09, No Iterations 3
DILUPBiCGStab:  Solving for CH4, Initial residual = 0, Final residual = 0, No Iterations 0
DILUPBiCGStab:  Solving for CO2, Initial residual = 0.00337926, Final residual = 3.57446e-09, No Iterations 3
DILUPBiCGStab:  Solving for h, Initial residual = 0.00394072, Final residual = 3.31255e-09, No Iterations 3
min/max(T) = 299.441, 1044.98
GAMGPCG:  Solving for p_rgh, Initial residual = 0.0210482, Final residual = 8.85845e-07, No Iterations 4
diagonal:  Solving for rho, Initial residual = 0, Final residual = 0, No Iterations 0
time step continuity errors : sum local = 4.96782e-08, global = -2.87969e-09, cumulative = -2.91605e-07
GAMGPCG:  Solving for p_rgh, Initial residual = 0.0031799, Final residual = 3.54681e-07, No Iterations 4
diagonal:  Solving for rho, Initial residual = 0, Final residual = 0, No Iterations 0
time step continuity errors : sum local = 1.97664e-08, global = 1.41257e-09, cumulative = -2.90192e-07
DILUPBiCGStab:  Solving for omega, Initial residual = 0.000142547, Final residual = 2.19898e-09, No Iterations 2
DILUPBiCGStab:  Solving for k, Initial residual = 0.00791753, Final residual = 3.84605e-09, No Iterations 3

ExecutionTime = 5.21 s  ClockTime = 5 s

    Overall     = 0.00149451, 0.01
Time = 290

diagonal:  Solving for rho, Initial residual = 0, Final residual = 0, No Iterations 0

Execution time for mesh.update() = 0 s

DILUPBiCGStab:  Solving for Ux, Initial residual = 0.00606197, Final residual = 6.97537e-09, No Iterations 3
DILUPBiCGStab:  Solving for Uy, Initial residual = 0.00808793, Final residual = 7.49182e-09, No Iterations 3
GAMGPCG:  Solving for G, Initial residual = 0.206737, Final residual = 5.37095e-05, No Iterations 5
DILUPBiCGStab:  Solving for O2, Initial residual = 0.00338742, Final residual = 3.34074e-09, No Iterations 3
DILUPBiCGStab:  Solving for H2O, Initial residual = 0.00338786, Final residual = 3.34083e-09, No Iterations 3
DILUPBiCGStab:  Solving for CH4, Initial residual = 0, Final residual = 0, No Iterations 0
DILUPBiCGStab:  Solving for CO2, Initial residual = 0.00338786, Final residual = 3.34083e-09, No Iterations 3
DILUPBiCGStab:  Solving for h, Initial residual = 0.00395223, Final residual = 2.90492e-09, No Iterations 3
min/max(T) = 299.436, 1044.98
GAMGPCG:  Solving for p_rgh, Initial residual = 0.0208247, Final residual = 8.72296e-07, No Iterations 4
diagonal:  Solving for rho, Initial residual = 0, Final residual = 0, No Iterations 0
time step continuity errors : sum local = 4.94039e-08, global = -1.53028e-09, cumulative = -2.91723e-07
GAMGPCG:  Solving for p_rgh, Initial residual = 0.0031512, Final residual = 3.6497e-07, No Iterations 4
diagonal:  Solving for rho, Initial residual = 0, Final residual = 0, No Iterations 0
time step continuity errors : sum local = 2.01919e-08, global = 1.33102e-09, cumulative = -2.90392e-07
DILUPBiCGStab:  Solving for omega, Initial residual = 0.000142578, Final residual = 2.09382e-09, No Iterations 2
DILUPBiCGStab:  Solving for k, Initial residual = 0.00793314, Final residual = 3.61499e-09, No Iterations 3

ExecutionTime = 5.45 s  ClockTime = 5 s

    Overall     = 0.00148621, 0.01
Time = 291

diagonal:  Solving for rho, Initial residual = 0, Final residual = 0, No Iterations 0

Execution time for mesh.update() = 0 s

DILUPBiCGStab:  Solving for Ux, Initial residual = 0.00606871, Final residual = 6.0797e-09, No Iterations 3
DILUPBiCGStab:  Solving for Uy, Initial residual = 0.00807011, Final residual = 7.36394e-09, No Iterations 3
DILUPBiCGStab:  Solving for O2, Initial residual = 0.00339744, Final residual = 3.21224e-09, No Iterations 3
DILUPBiCGStab:  Solving for H2O, Initial residual = 0.0033979, Final residual = 3.21227e-09, No Iterations 3
DILUPBiCGStab:  Solving for CH4, Initial residual = 0, Final residual = 0, No Iterations 0
DILUPBiCGStab:  Solving for CO2, Initial residual = 0.0033979, Final residual = 3.21227e-09, No Iterations 3
DILUPBiCGStab:  Solving for h, Initial residual = 0.00397264, Final residual = 2.74681e-09, No Iterations 3
min/max(T) = 299.432, 1044.98
GAMGPCG:  Solving for p_rgh, Initial residual = 0.0211258, Final residual = 9.68698e-07, No Iterations 4
diagonal:  Solving for rho, Initial residual = 0, Final residual = 0, No Iterations 0
time step continuity errors : sum local = 5.48944e-08, global = -2.45615e-09, cumulative = -2.92848e-07
GAMGPCG:  Solving for p_rgh, Initial residual = 0.00315929, Final residual = 3.78291e-07, No Iterations 4
diagonal:  Solving for rho, Initial residual = 0, Final residual = 0, No Iterations 0
time step continuity errors : sum local = 2.10667e-08, global = 1.05677e-09, cumulative = -2.91791e-07
DILUPBiCGStab:  Solving for omega, Initial residual = 0.000143286, Final residual = 2.05174e-09, No Iterations 2
DILUPBiCGStab:  Solving for k, Initial residual = 0.00793212, Final residual = 3.31514e-09, No Iterations 3

ExecutionTime = 5.57 s  ClockTime = 5 s

    Overall     = 0.00148158, 0.01
Time = 292

diagonal:  Solving for rho, Initial residual = 0, Final residual = 0, No Iterations 0

Execution time for mesh.update() = 0 s

DILUPBiCGStab:  Solving for Ux, Initial residual = 0.00607089, Final residual = 5.47632e-09, No Iterations 3
DILUPBiCGStab:  Solving for Uy, Initial residual = 0.0080359, Final residual = 6.99558e-09, No Iterations 3
DILUPBiCGStab:  Solving for O2, Initial residual = 0.00340578, Final residual = 3.01824e-09, No Iterations 3
DILUPBiCGStab:  Solving for H2O, Initial residual = 0.00340617, Final residual = 3.01824e-09, No Iterations 3
DILUPBiCGStab:  Solving for CH4, Initial residual = 0, Final residual = 0, No Iterations 0
DILUPBiCGStab:  Solving for CO2, Initial residual = 0.00340617, Final residual = 3.01825e-09, No Iterations 3
DILUPBiCGStab:  Solving for h, Initial residual = 0.0039857, Final residual = 2.637e-09, No Iterations 3
min/max(T) = 299.425, 1044.98
GAMGPCG:  Solving for p_rgh, Initial residual = 0.0209463, Final residual = 8.80148e-07, No Iterations 4
diagonal:  Solving for rho, Initial residual = 0, Final residual = 0, No Iterations 0
time step continuity errors : sum local = 4.96014e-08, global = -2.11995e-09, cumulative = -2.93911e-07
GAMGPCG:  Solving for p_rgh, Initial residual = 0.00312897, Final residual = 3.96409e-07, No Iterations 4
diagonal:  Solving for rho, Initial residual = 0, Final residual = 0, No Iterations 0
time step continuity errors : sum local = 2.18485e-08, global = 8.91756e-10, cumulative = -2.93019e-07
DILUPBiCGStab:  Solving for omega, Initial residual = 0.000143356, Final residual = 1.88418e-09, No Iterations 2
DILUPBiCGStab:  Solving for k, Initial residual = 0.00793708, Final residual = 2.92596e-09, No Iterations 3

ExecutionTime = 5.68 s  ClockTime = 6 s

    Overall     = 0.00147359, 0.01
[...]

Execution time for mesh.update() = 0 s

DILUPBiCGStab:  Solving for Ux, Initial residual = 0.00562372, Final residual = 8.97087e-09, No Iterations 3
DILUPBiCGStab:  Solving for Uy, Initial residual = 0.0052029, Final residual = 6.85152e-09, No Iterations 3
GAMGPCG:  Solving for G, Initial residual = 0.157664, Final residual = 6.86698e-05, No Iterations 5
DILUPBiCGStab:  Solving for O2, Initial residual = 0.00190134, Final residual = 3.23946e-09, No Iterations 3
DILUPBiCGStab:  Solving for H2O, Initial residual = 0.00190134, Final residual = 3.23946e-09, No Iterations 3
DILUPBiCGStab:  Solving for CH4, Initial residual = 0, Final residual = 0, No Iterations 0
DILUPBiCGStab:  Solving for CO2, Initial residual = 0.00190134, Final residual = 3.23946e-09, No Iterations 3
DILUPBiCGStab:  Solving for h, Initial residual = 0.00205685, Final residual = 3.04587e-09, No Iterations 3
min/max(T) = 300, 1044.98
GAMGPCG:  Solving for p_rgh, Initial residual = 0.0179103, Final residual = 7.72045e-07, No Iterations 4
diagonal:  Solving for rho, Initial residual = 0, Final residual = 0, No Iterations 0
time step continuity errors : sum local = 3.38001e-08, global = -6.58143e-09, cumulative = 2.45698e-06
GAMGPCG:  Solving for p_rgh, Initial residual = 0.00322644, Final residual = 4.14184e-07, No Iterations 4
diagonal:  Solving for rho, Initial residual = 0, Final residual = 0, No Iterations 0
time step continuity errors : sum local = 1.76071e-08, global = 3.95612e-09, cumulative = 2.46094e-06
DILUPBiCGStab:  Solving for omega, Initial residual = 9.96154e-05, Final residual = 2.10272e-09, No Iterations 2
DILUPBiCGStab:  Solving for k, Initial residual = 0.0037367, Final residual = 2.54788e-09, No Iterations 3

ExecutionTime = 292.03 s  ClockTime = 292 s

    Overall     = 0.00124679, 0.01
Time = 2491

diagonal:  Solving for rho, Initial residual = 0, Final residual = 0, No Iterations 0

Execution time for mesh.update() = 0 s

DILUPBiCGStab:  Solving for Ux, Initial residual = 0.00562035, Final residual = 9.61858e-09, No Iterations 3
DILUPBiCGStab:  Solving for Uy, Initial residual = 0.00521667, Final residual = 5.93968e-09, No Iterations 3
DILUPBiCGStab:  Solving for O2, Initial residual = 0.00191001, Final residual = 3.35994e-09, No Iterations 3
DILUPBiCGStab:  Solving for H2O, Initial residual = 0.00191002, Final residual = 3.35994e-09, No Iterations 3
DILUPBiCGStab:  Solving for CH4, Initial residual = 0, Final residual = 0, No Iterations 0
DILUPBiCGStab:  Solving for CO2, Initial residual = 0.00191002, Final residual = 3.35994e-09, No Iterations 3
DILUPBiCGStab:  Solving for h, Initial residual = 0.00206557, Final residual = 3.10983e-09, No Iterations 3
min/max(T) = 300, 1044.98
GAMGPCG:  Solving for p_rgh, Initial residual = 0.0183535, Final residual = 9.59911e-07, No Iterations 4
diagonal:  Solving for rho, Initial residual = 0, Final residual = 0, No Iterations 0
time step continuity errors : sum local = 4.18281e-08, global = -7.87759e-09, cumulative = 2.45306e-06
GAMGPCG:  Solving for p_rgh, Initial residual = 0.00321308, Final residual = 4.51785e-07, No Iterations 4
diagonal:  Solving for rho, Initial residual = 0, Final residual = 0, No Iterations 0
time step continuity errors : sum local = 1.92469e-08, global = 4.03681e-09, cumulative = 2.4571e-06
DILUPBiCGStab:  Solving for omega, Initial residual = 9.82509e-05, Final residual = 2.1033e-09, No Iterations 2
DILUPBiCGStab:  Solving for k, Initial residual = 0.00372193, Final residual = 2.40553e-09, No Iterations 3

ExecutionTime = 292.14 s  ClockTime = 292 s

    Overall     = 0.00123892, 0.01
Time = 2492

diagonal:  Solving for rho, Initial residual = 0, Final residual = 0, No Iterations 0

Execution time for mesh.update() = 0 s

DILUPBiCGStab:  Solving for Ux, Initial residual = 0.00559256, Final residual = 9.58052e-10, No Iterations 3
DILUPBiCGStab:  Solving for Uy, Initial residual = 0.00522799, Final residual = 5.89808e-09, No Iterations 3
DILUPBiCGStab:  Solving for O2, Initial residual = 0.00191418, Final residual = 3.37186e-09, No Iterations 3
DILUPBiCGStab:  Solving for H2O, Initial residual = 0.00191418, Final residual = 3.37187e-09, No Iterations 3
DILUPBiCGStab:  Solving for CH4, Initial residual = 0, Final residual = 0, No Iterations 0
DILUPBiCGStab:  Solving for CO2, Initial residual = 0.00191418, Final residual = 3.37187e-09, No Iterations 3
DILUPBiCGStab:  Solving for h, Initial residual = 0.0020681, Final residual = 3.08082e-09, No Iterations 3
min/max(T) = 300, 1044.98
GAMGPCG:  Solving for p_rgh, Initial residual = 0.0180589, Final residual = 9.89521e-07, No Iterations 4
diagonal:  Solving for rho, Initial residual = 0, Final residual = 0, No Iterations 0
time step continuity errors : sum local = 4.3205e-08, global = -8.82089e-09, cumulative = 2.44828e-06
GAMGPCG:  Solving for p_rgh, Initial residual = 0.00318208, Final residual = 4.99504e-07, No Iterations 4
diagonal:  Solving for rho, Initial residual = 0, Final residual = 0, No Iterations 0
time step continuity errors : sum local = 2.11902e-08, global = 3.87912e-09, cumulative = 2.45216e-06
DILUPBiCGStab:  Solving for omega, Initial residual = 9.74388e-05, Final residual = 2.08407e-09, No Iterations 2
DILUPBiCGStab:  Solving for k, Initial residual = 0.00370761, Final residual = 2.40173e-09, No Iterations 3

ExecutionTime = 292.26 s  ClockTime = 292 s

    Overall     = 0.00123732, 0.01
Time = 2493

diagonal:  Solving for rho, Initial residual = 0, Final residual = 0, No Iterations 0

Execution time for mesh.update() = 0 s

DILUPBiCGStab:  Solving for Ux, Initial residual = 0.00557816, Final residual = 9.07546e-10, No Iterations 3
DILUPBiCGStab:  Solving for Uy, Initial residual = 0.00520098, Final residual = 6.19096e-09, No Iterations 3
DILUPBiCGStab:  Solving for O2, Initial residual = 0.00191594, Final residual = 3.19252e-09, No Iterations 3
DILUPBiCGStab:  Solving for H2O, Initial residual = 0.00191594, Final residual = 3.19253e-09, No Iterations 3
DILUPBiCGStab:  Solving for CH4, Initial residual = 0, Final residual = 0, No Iterations 0
DILUPBiCGStab:  Solving for CO2, Initial residual = 0.00191594, Final residual = 3.19253e-09, No Iterations 3
DILUPBiCGStab:  Solving for h, Initial residual = 0.00207183, Final residual = 2.94091e-09, No Iterations 3
min/max(T) = 300, 1044.98
GAMGPCG:  Solving for p_rgh, Initial residual = 0.0180185, Final residual = 1.49416e-07, No Iterations 5
diagonal:  Solving for rho, Initial residual = 0, Final residual = 0, No Iterations 0
time step continuity errors : sum local = 6.73725e-09, global = -5.07202e-10, cumulative = 2.45165e-06
GAMGPCG:  Solving for p_rgh, Initial residual = 0.00314582, Final residual = 5.28075e-07, No Iterations 4
diagonal:  Solving for rho, Initial residual = 0, Final residual = 0, No Iterations 0
time step continuity errors : sum local = 2.24883e-08, global = 3.7074e-09, cumulative = 2.45536e-06
DILUPBiCGStab:  Solving for omega, Initial residual = 9.68198e-05, Final residual = 1.97702e-09, No Iterations 2
DILUPBiCGStab:  Solving for k, Initial residual = 0.00369635, Final residual = 2.56042e-09, No Iterations 3

ExecutionTime = 292.38 s  ClockTime = 292 s

    Overall     = 0.00122944, 0.01
Time = 2494

diagonal:  Solving for rho, Initial residual = 0, Final residual = 0, No Iterations 0

Execution time for mesh.update() = 0 s

DILUPBiCGStab:  Solving for Ux, Initial residual = 0.00553928, Final residual = 8.47809e-10, No Iterations 3
DILUPBiCGStab:  Solving for Uy, Initial residual = 0.00518287, Final residual = 6.45476e-09, No Iterations 3
DILUPBiCGStab:  Solving for O2, Initial residual = 0.00191568, Final residual = 2.95956e-09, No Iterations 3
DILUPBiCGStab:  Solving for H2O, Initial residual = 0.00191568, Final residual = 2.95956e-09, No Iterations 3
DILUPBiCGStab:  Solving for CH4, Initial residual = 0, Final residual = 0, No Iterations 0
DILUPBiCGStab:  Solving for CO2, Initial residual = 0.00191568, Final residual = 2.95956e-09, No Iterations 3
DILUPBiCGStab:  Solving for h, Initial residual = 0.00207017, Final residual = 2.72036e-09, No Iterations 3
min/max(T) = 300, 1044.98
GAMGPCG:  Solving for p_rgh, Initial residual = 0.0182116, Final residual = 1.52244e-07, No Iterations 5
diagonal:  Solving for rho, Initial residual = 0, Final residual = 0, No Iterations 0
time step continuity errors : sum local = 6.80916e-09, global = -6.04257e-10, cumulative = 2.45475e-06
GAMGPCG:  Solving for p_rgh, Initial residual = 0.00309222, Final residual = 5.21369e-07, No Iterations 4
diagonal:  Solving for rho, Initial residual = 0, Final residual = 0, No Iterations 0
time step continuity errors : sum local = 2.21393e-08, global = 3.77628e-09, cumulative = 2.45853e-06
DILUPBiCGStab:  Solving for omega, Initial residual = 9.61459e-05, Final residual = 1.88171e-09, No Iterations 2
DILUPBiCGStab:  Solving for k, Initial residual = 0.00368429, Final residual = 2.44922e-09, No Iterations 3

ExecutionTime = 292.5 s  ClockTime = 293 s

    Overall     = 0.00122756, 0.01
Time = 2495

diagonal:  Solving for rho, Initial residual = 0, Final residual = 0, No Iterations 0

Execution time for mesh.update() = 0 s

DILUPBiCGStab:  Solving for Ux, Initial residual = 0.00552998, Final residual = 8.59165e-10, No Iterations 3
DILUPBiCGStab:  Solving for Uy, Initial residual = 0.00513021, Final residual = 6.91776e-09, No Iterations 3
DILUPBiCGStab:  Solving for O2, Initial residual = 0.00191269, Final residual = 2.96711e-09, No Iterations 3
DILUPBiCGStab:  Solving for H2O, Initial residual = 0.00191269, Final residual = 2.96711e-09, No Iterations 3
DILUPBiCGStab:  Solving for CH4, Initial residual = 0, Final residual = 0, No Iterations 0
DILUPBiCGStab:  Solving for CO2, Initial residual = 0.00191269, Final residual = 2.96711e-09, No Iterations 3
DILUPBiCGStab:  Solving for h, Initial residual = 0.00206706, Final residual = 2.60745e-09, No Iterations 3
min/max(T) = 300, 1044.98
GAMGPCG:  Solving for p_rgh, Initial residual = 0.0179865, Final residual = 1.59344e-07, No Iterations 5
diagonal:  Solving for rho, Initial residual = 0, Final residual = 0, No Iterations 0
time step continuity errors : sum local = 7.10907e-09, global = -6.53015e-10, cumulative = 2.45788e-06
GAMGPCG:  Solving for p_rgh, Initial residual = 0.00308362, Final residual = 5.3764e-07, No Iterations 4
diagonal:  Solving for rho, Initial residual = 0, Final residual = 0, No Iterations 0
time step continuity errors : sum local = 2.28426e-08, global = 3.78916e-09, cumulative = 2.46167e-06
DILUPBiCGStab:  Solving for omega, Initial residual = 9.50412e-05, Final residual = 1.82946e-09, No Iterations 2
DILUPBiCGStab:  Solving for k, Initial residual = 0.00367429, Final residual = 4.25129e-09, No Iterations 3

ExecutionTime = 292.62 s  ClockTime = 293 s

    Overall     = 0.00122031, 0.01
Time = 2496

diagonal:  Solving for rho, Initial residual = 0, Final residual = 0, No Iterations 0

Execution time for mesh.update() = 0 s

DILUPBiCGStab:  Solving for Ux, Initial residual = 0.00548605, Final residual = 8.93846e-10, No Iterations 3
DILUPBiCGStab:  Solving for Uy, Initial residual = 0.00511981, Final residual = 7.41007e-09, No Iterations 3
DILUPBiCGStab:  Solving for O2, Initial residual = 0.00191149, Final residual = 2.80847e-09, No Iterations 3
DILUPBiCGStab:  Solving for H2O, Initial residual = 0.00191149, Final residual = 2.80847e-09, No Iterations 3
DILUPBiCGStab:  Solving for CH4, Initial residual = 0, Final residual = 0, No Iterations 0
DILUPBiCGStab:  Solving for CO2, Initial residual = 0.00191149, Final residual = 2.80847e-09, No Iterations 3
DILUPBiCGStab:  Solving for h, Initial residual = 0.00206428, Final residual = 2.53089e-09, No Iterations 3
min/max(T) = 300, 1044.98
GAMGPCG:  Solving for p_rgh, Initial residual = 0.0179039, Final residual = 1.62643e-07, No Iterations 5
diagonal:  Solving for rho, Initial residual = 0, Final residual = 0, No Iterations 0
time step continuity errors : sum local = 7.20063e-09, global = -7.00015e-10, cumulative = 2.46097e-06
GAMGPCG:  Solving for p_rgh, Initial residual = 0.0030425, Final residual = 5.23216e-07, No Iterations 4
diagonal:  Solving for rho, Initial residual = 0, Final residual = 0, No Iterations 0
time step continuity errors : sum local = 2.22151e-08, global = 3.91534e-09, cumulative = 2.46488e-06
DILUPBiCGStab:  Solving for omega, Initial residual = 9.40563e-05, Final residual = 1.81542e-09, No Iterations 2
DILUPBiCGStab:  Solving for k, Initial residual = 0.00366334, Final residual = 4.09304e-09, No Iterations 3

ExecutionTime = 292.74 s  ClockTime = 293 s

    Overall     = 0.00121862, 0.01
Time = 2497

diagonal:  Solving for rho, Initial residual = 0, Final residual = 0, No Iterations 0

Execution time for mesh.update() = 0 s

DILUPBiCGStab:  Solving for Ux, Initial residual = 0.00547211, Final residual = 8.89088e-10, No Iterations 3
DILUPBiCGStab:  Solving for Uy, Initial residual = 0.00508359, Final residual = 7.54745e-09, No Iterations 3
DILUPBiCGStab:  Solving for O2, Initial residual = 0.00191072, Final residual = 2.73221e-09, No Iterations 3
DILUPBiCGStab:  Solving for H2O, Initial residual = 0.00191072, Final residual = 2.73221e-09, No Iterations 3
DILUPBiCGStab:  Solving for CH4, Initial residual = 0, Final residual = 0, No Iterations 0
DILUPBiCGStab:  Solving for CO2, Initial residual = 0.00191072, Final residual = 2.73221e-09, No Iterations 3
DILUPBiCGStab:  Solving for h, Initial residual = 0.00205965, Final residual = 2.4728e-09, No Iterations 3
min/max(T) = 300, 1044.98
GAMGPCG:  Solving for p_rgh, Initial residual = 0.0178241, Final residual = 1.57586e-07, No Iterations 5
diagonal:  Solving for rho, Initial residual = 0, Final residual = 0, No Iterations 0
time step continuity errors : sum local = 6.9149e-09, global = -6.00079e-10, cumulative = 2.46428e-06
GAMGPCG:  Solving for p_rgh, Initial residual = 0.00307765, Final residual = 4.85032e-07, No Iterations 4
diagonal:  Solving for rho, Initial residual = 0, Final residual = 0, No Iterations 0
time step continuity errors : sum local = 2.06062e-08, global = 3.92672e-09, cumulative = 2.46821e-06
DILUPBiCGStab:  Solving for omega, Initial residual = 9.3084e-05, Final residual = 1.73619e-09, No Iterations 2
DILUPBiCGStab:  Solving for k, Initial residual = 0.00365847, Final residual = 1.18188e-09, No Iterations 3

ExecutionTime = 292.86 s  ClockTime = 293 s

    Overall     = 0.00121264, 0.01
Time = 2498

diagonal:  Solving for rho, Initial residual = 0, Final residual = 0, No Iterations 0

Execution time for mesh.update() = 0 s

DILUPBiCGStab:  Solving for Ux, Initial residual = 0.00544155, Final residual = 1.01034e-09, No Iterations 3
DILUPBiCGStab:  Solving for Uy, Initial residual = 0.00506075, Final residual = 7.62943e-09, No Iterations 3
DILUPBiCGStab:  Solving for O2, Initial residual = 0.0019001, Final residual = 2.90298e-09, No Iterations 3
DILUPBiCGStab:  Solving for H2O, Initial residual = 0.0019001, Final residual = 2.90298e-09, No Iterations 3
DILUPBiCGStab:  Solving for CH4, Initial residual = 0, Final residual = 0, No Iterations 0
DILUPBiCGStab:  Solving for CO2, Initial residual = 0.0019001, Final residual = 2.90298e-09, No Iterations 3
DILUPBiCGStab:  Solving for h, Initial residual = 0.00205054, Final residual = 2.65128e-09, No Iterations 3
min/max(T) = 300, 1044.98
GAMGPCG:  Solving for p_rgh, Initial residual = 0.0173814, Final residual = 1.49566e-07, No Iterations 5
diagonal:  Solving for rho, Initial residual = 0, Final residual = 0, No Iterations 0
time step continuity errors : sum local = 6.54427e-09, global = -3.85359e-10, cumulative = 2.46782e-06
GAMGPCG:  Solving for p_rgh, Initial residual = 0.00305034, Final residual = 4.67882e-07, No Iterations 4
diagonal:  Solving for rho, Initial residual = 0, Final residual = 0, No Iterations 0
time step continuity errors : sum local = 1.98951e-08, global = 3.97445e-09, cumulative = 2.4718e-06
DILUPBiCGStab:  Solving for omega, Initial residual = 9.31869e-05, Final residual = 1.69415e-09, No Iterations 2
DILUPBiCGStab:  Solving for k, Initial residual = 0.00366244, Final residual = 7.70845e-10, No Iterations 3

ExecutionTime = 292.98 s  ClockTime = 293 s

    Overall     = 0.00121157, 0.01
Time = 2499

diagonal:  Solving for rho, Initial residual = 0, Final residual = 0, No Iterations 0

Execution time for mesh.update() = 0 s

DILUPBiCGStab:  Solving for Ux, Initial residual = 0.00541641, Final residual = 8.65727e-10, No Iterations 3
DILUPBiCGStab:  Solving for Uy, Initial residual = 0.00501114, Final residual = 7.36615e-09, No Iterations 3
DILUPBiCGStab:  Solving for O2, Initial residual = 0.00189606, Final residual = 2.72252e-09, No Iterations 3
DILUPBiCGStab:  Solving for H2O, Initial residual = 0.00189606, Final residual = 2.72252e-09, No Iterations 3
DILUPBiCGStab:  Solving for CH4, Initial residual = 0, Final residual = 0, No Iterations 0
DILUPBiCGStab:  Solving for CO2, Initial residual = 0.00189606, Final residual = 2.72252e-09, No Iterations 3
DILUPBiCGStab:  Solving for h, Initial residual = 0.00204258, Final residual = 2.45375e-09, No Iterations 3
min/max(T) = 300, 1044.98
GAMGPCG:  Solving for p_rgh, Initial residual = 0.0173129, Final residual = 1.49239e-07, No Iterations 5
diagonal:  Solving for rho, Initial residual = 0, Final residual = 0, No Iterations 0
time step continuity errors : sum local = 6.49055e-09, global = -4.0898e-10, cumulative = 2.47139e-06
GAMGPCG:  Solving for p_rgh, Initial residual = 0.00305469, Final residual = 4.45615e-07, No Iterations 4
diagonal:  Solving for rho, Initial residual = 0, Final residual = 0, No Iterations 0
time step continuity errors : sum local = 1.89528e-08, global = 3.96425e-09, cumulative = 2.47535e-06
DILUPBiCGStab:  Solving for omega, Initial residual = 9.19266e-05, Final residual = 1.59882e-09, No Iterations 2
DILUPBiCGStab:  Solving for k, Initial residual = 0.00364962, Final residual = 3.01518e-09, No Iterations 3

ExecutionTime = 293.09 s  ClockTime = 293 s

    Overall     = 0.00120694, 0.01
Time = 2500

diagonal:  Solving for rho, Initial residual = 0, Final residual = 0, No Iterations 0

Execution time for mesh.update() = 0 s

DILUPBiCGStab:  Solving for Ux, Initial residual = 0.00538046, Final residual = 7.7564e-10, No Iterations 3
DILUPBiCGStab:  Solving for Uy, Initial residual = 0.00497263, Final residual = 7.5589e-09, No Iterations 3
GAMGPCG:  Solving for G, Initial residual = 0.179058, Final residual = 9.52517e-05, No Iterations 5
DILUPBiCGStab:  Solving for O2, Initial residual = 0.00188608, Final residual = 2.62886e-09, No Iterations 3
DILUPBiCGStab:  Solving for H2O, Initial residual = 0.00188608, Final residual = 2.62887e-09, No Iterations 3
DILUPBiCGStab:  Solving for CH4, Initial residual = 0, Final residual = 0, No Iterations 0
DILUPBiCGStab:  Solving for CO2, Initial residual = 0.00188608, Final residual = 2.62887e-09, No Iterations 3
DILUPBiCGStab:  Solving for h, Initial residual = 0.00202971, Final residual = 2.36367e-09, No Iterations 3
min/max(T) = 300, 1044.98
GAMGPCG:  Solving for p_rgh, Initial residual = 0.0171392, Final residual = 1.40088e-07, No Iterations 5
diagonal:  Solving for rho, Initial residual = 0, Final residual = 0, No Iterations 0
time step continuity errors : sum local = 6.08097e-09, global = -1.9173e-10, cumulative = 2.47516e-06
GAMGPCG:  Solving for p_rgh, Initial residual = 0.0029986, Final residual = 4.17392e-07, No Iterations 4
diagonal:  Solving for rho, Initial residual = 0, Final residual = 0, No Iterations 0
time step continuity errors : sum local = 1.77943e-08, global = 3.95148e-09, cumulative = 2.47911e-06
DILUPBiCGStab:  Solving for omega, Initial residual = 9.13899e-05, Final residual = 1.57799e-09, No Iterations 2
DILUPBiCGStab:  Solving for k, Initial residual = 0.00364519, Final residual = 2.13482e-09, No Iterations 3

ExecutionTime = 293.34 s  ClockTime = 293 s


Patch Mean : 302.827
Patch Variance : 0.00611836
Patch Gradient : 0.19827
End
