/*---------------------------------------------------------------------------*\
  =========                 |
  \\      /  F ield         | OpenFOAM: The Open Source CFD Toolbox
   \\    /   O peration     | Website:  https://openfoam.org
    \\  /    A nd           | Version:  dev
     \\/     M anipulation  |
\*---------------------------------------------------------------------------*/
Build  : dev-cabe48fb62c1
Exec   : fireDyMFoam
Date   : Apr 15 2019
Time   : 13:23:11
Host   : "Host"
PID    : 4555
I/O    : uncollated
Case   : /home/tesla/OpenFOAM/tesla-dev/run/rollerOpt_COBYLA_NEW
nProcs : 1
sigFpe : Enabling floating point exception trapping (FOAM_SIGFPE).
fileModificationChecking : Monitoring run-time modified files using timeStampMaster (fileModificationSkew 10)
allowSystemOperations : Allowing user-supplied system call operations

// * * * * * * * * * * * * * * * * * * * * * * * * * * * * * * * * * * * * * //
Create time

--> FOAM Warning : 
    From function void* Foam::dlOpen(const Foam::fileName&, bool)
    in file POSIX.C at line 1268
    dlopen error : libgroovyBC.so: cannot open shared object file: No such file or directory
--> FOAM Warning : 
    From function bool Foam::dlLibraryTable::open(const Foam::fileName&, bool)
    in file db/dynamicLibrary/dlLibraryTable/dlLibraryTable.C at line 105
    could not load "libgroovyBC.so"
Create mesh for time = 250

Selecting dynamicFvMesh dynamicRefineFvMesh
Detected 536 cells that are protected from refinement. Writing these to cellSet protectedCells.

PIMPLE: No convergence criteria found


PIMPLE: Operating solver in PISO mode


Initializing Solver

Selecting thermodynamics package 
{
    type            hePsiThermo;
    mixture         reactingMixture;
    transport       sutherland;
    thermo          janaf;
    energy          sensibleEnthalpy;
    equationOfState perfectGas;
    specie          specie;
}

Selecting chemistryReader foamChemistryReader
    elements not defined in "/home/tesla/OpenFOAM/tesla-dev/run/rollerOpt_COBYLA_NEW/constant/reactions"
Reading/calculating face flux field phi

No MRF models present

Selecting turbulence model type RAS
Selecting RAS turbulence model kOmegaSST
Selecting patchDistMethod meshWave
kOmegaSSTCoeffs
{
    delta           cubeRootVol;
    cubeRootVolCoeffs
    {
        deltaCoeff      1;
    }
    alphaK1         0.85;
    alphaK2         1;
    alphaOmega1     0.5;
    alphaOmega2     0.856;
    gamma1          0.555556;
    gamma2          0.44;
    beta1           0.075;
    beta2           0.0828;
    betaStar        0.09;
    a1              0.31;
    b1              1;
    c1              10;
    F3              false;
}

Selecting combustion model none<psiThermoCombustion>
--> FOAM Warning : 
    From function static Foam::autoPtr<T> Foam::combustionModel::New(typename CombustionModel::reactionThermo&, const Foam::compressibleTurbulenceModel&, const Foam::word&) [with CombustionModel = Foam::CombustionModel<Foam::psiReactionThermo>; typename CombustionModel::reactionThermo = Foam::psiReactionThermo]
    in file /home/tesla/OpenFOAM/OpenFOAM-dev/src/combustionModels/lnInclude/combustionModelTemplates.C at line 69
    Template parameters are no longer required when selecting a combustionModel. This information is now obtained directly from the thermodynamics. Actually selecting combustion model none.

Reading g

Reading hRef
Calculating field g.h


Reading pRef
Selecting radiationModel P1
Selecting absorptionEmissionModel greyMeanAbsorptionEmission
Selecting scatterModel none
Selecting sootModel none
Creating finite volume options from "system/fvOptions"

No finite volume options present
Using LTS

Starting time loop

Using dynamicCode for functionObject patchCalcs at line 64 in "/home/tesla/OpenFOAM/tesla-dev/run/rollerOpt_COBYLA_NEW/system/controlDict.functions.patchCalcs"
    Overall     = 0.00174737, 0.01
Time = 251

diagonal:  Solving for rho, Initial residual = 0, Final residual = 0, No Iterations 0

Execution time for mesh.update() = 0 s

DILUPBiCGStab:  Solving for Ux, Initial residual = 0.00595071, Final residual = 3.90517e-09, No Iterations 3
DILUPBiCGStab:  Solving for Uy, Initial residual = 0.00841587, Final residual = 5.92918e-09, No Iterations 3
GAMGPCG:  Solving for G, Initial residual = 0.0344743, Final residual = 4.64748e-05, No Iterations 4
DILUPBiCGStab:  Solving for O2, Initial residual = 0.0034753, Final residual = 2.2776e-09, No Iterations 3
DILUPBiCGStab:  Solving for H2O, Initial residual = 0.00347548, Final residual = 2.27747e-09, No Iterations 3
DILUPBiCGStab:  Solving for CH4, Initial residual = 0, Final residual = 0, No Iterations 0
DILUPBiCGStab:  Solving for CO2, Initial residual = 0.00347547, Final residual = 2.27744e-09, No Iterations 3
DILUPBiCGStab:  Solving for h, Initial residual = 0.00402026, Final residual = 2.17489e-09, No Iterations 3
min/max(T) = 299.67, 1044.98
GAMGPCG:  Solving for p_rgh, Initial residual = 0.0201159, Final residual = 6.73203e-07, No Iterations 4
diagonal:  Solving for rho, Initial residual = 0, Final residual = 0, No Iterations 0
time step continuity errors : sum local = 2.46571e-06, global = -1.36853e-07, cumulative = -1.36853e-07
GAMGPCG:  Solving for p_rgh, Initial residual = 0.00283196, Final residual = 1.57611e-07, No Iterations 4
diagonal:  Solving for rho, Initial residual = 0, Final residual = 0, No Iterations 0
time step continuity errors : sum local = 2.46462e-06, global = -1.38296e-07, cumulative = -2.75149e-07
DILUPBiCGStab:  Solving for omega, Initial residual = 0.000127793, Final residual = 1.78292e-09, No Iterations 2
DILUPBiCGStab:  Solving for k, Initial residual = 0.0072039, Final residual = 9.41503e-09, No Iterations 3

ExecutionTime = 0.37 s  ClockTime = 0 s

    Overall     = 0.00174437, 0.01
Time = 252

diagonal:  Solving for rho, Initial residual = 0, Final residual = 0, No Iterations 0

Execution time for mesh.update() = 0 s

DILUPBiCGStab:  Solving for Ux, Initial residual = 0.00593624, Final residual = 4.14791e-09, No Iterations 3
DILUPBiCGStab:  Solving for Uy, Initial residual = 0.00834864, Final residual = 5.828e-09, No Iterations 3
DILUPBiCGStab:  Solving for O2, Initial residual = 0.00346898, Final residual = 2.23127e-09, No Iterations 3
DILUPBiCGStab:  Solving for H2O, Initial residual = 0.00346889, Final residual = 2.23111e-09, No Iterations 3
DILUPBiCGStab:  Solving for CH4, Initial residual = 0, Final residual = 0, No Iterations 0
DILUPBiCGStab:  Solving for CO2, Initial residual = 0.00346889, Final residual = 2.23112e-09, No Iterations 3
DILUPBiCGStab:  Solving for h, Initial residual = 0.00401724, Final residual = 2.17938e-09, No Iterations 3
min/max(T) = 299.679, 1044.98
GAMGPCG:  Solving for p_rgh, Initial residual = 0.0197583, Final residual = 6.58259e-07, No Iterations 4
diagonal:  Solving for rho, Initial residual = 0, Final residual = 0, No Iterations 0
time step continuity errors : sum local = 3.86533e-08, global = -7.74051e-10, cumulative = -2.75923e-07
GAMGPCG:  Solving for p_rgh, Initial residual = 0.00261962, Final residual = 1.67123e-07, No Iterations 4
diagonal:  Solving for rho, Initial residual = 0, Final residual = 0, No Iterations 0
time step continuity errors : sum local = 9.64853e-09, global = 8.62427e-10, cumulative = -2.75061e-07
DILUPBiCGStab:  Solving for omega, Initial residual = 0.000129097, Final residual = 1.70509e-09, No Iterations 2
DILUPBiCGStab:  Solving for k, Initial residual = 0.00724004, Final residual = 7.1216e-10, No Iterations 3

ExecutionTime = 0.49 s  ClockTime = 1 s

    Overall     = 0.00175867, 0.01
Time = 253

diagonal:  Solving for rho, Initial residual = 0, Final residual = 0, No Iterations 0

Execution time for mesh.update() = 0 s

DILUPBiCGStab:  Solving for Ux, Initial residual = 0.00594211, Final residual = 4.18574e-09, No Iterations 3
DILUPBiCGStab:  Solving for Uy, Initial residual = 0.00835957, Final residual = 5.52627e-09, No Iterations 3
DILUPBiCGStab:  Solving for O2, Initial residual = 0.0034577, Final residual = 2.44038e-09, No Iterations 3
DILUPBiCGStab:  Solving for H2O, Initial residual = 0.00345786, Final residual = 2.44032e-09, No Iterations 3
DILUPBiCGStab:  Solving for CH4, Initial residual = 0, Final residual = 0, No Iterations 0
DILUPBiCGStab:  Solving for CO2, Initial residual = 0.00345786, Final residual = 2.44034e-09, No Iterations 3
DILUPBiCGStab:  Solving for h, Initial residual = 0.00401199, Final residual = 2.27399e-09, No Iterations 3
min/max(T) = 299.682, 1044.98
GAMGPCG:  Solving for p_rgh, Initial residual = 0.0200892, Final residual = 8.23671e-07, No Iterations 4
diagonal:  Solving for rho, Initial residual = 0, Final residual = 0, No Iterations 0
time step continuity errors : sum local = 4.82883e-08, global = 3.23647e-09, cumulative = -2.71824e-07
GAMGPCG:  Solving for p_rgh, Initial residual = 0.00265882, Final residual = 1.72404e-07, No Iterations 4
diagonal:  Solving for rho, Initial residual = 0, Final residual = 0, No Iterations 0
time step continuity errors : sum local = 9.74066e-09, global = 9.58283e-10, cumulative = -2.70866e-07
DILUPBiCGStab:  Solving for omega, Initial residual = 0.000126974, Final residual = 1.75215e-09, No Iterations 2
DILUPBiCGStab:  Solving for k, Initial residual = 0.00727139, Final residual = 7.20805e-10, No Iterations 3

ExecutionTime = 0.6 s  ClockTime = 1 s

    Overall     = 0.00175563, 0.01
Time = 254

diagonal:  Solving for rho, Initial residual = 0, Final residual = 0, No Iterations 0

Execution time for mesh.update() = 0 s

DILUPBiCGStab:  Solving for Ux, Initial residual = 0.00593018, Final residual = 4.4658e-09, No Iterations 3
DILUPBiCGStab:  Solving for Uy, Initial residual = 0.0083362, Final residual = 5.56612e-09, No Iterations 3
DILUPBiCGStab:  Solving for O2, Initial residual = 0.00344937, Final residual = 2.58657e-09, No Iterations 3
DILUPBiCGStab:  Solving for H2O, Initial residual = 0.00344926, Final residual = 2.58659e-09, No Iterations 3
DILUPBiCGStab:  Solving for CH4, Initial residual = 0, Final residual = 0, No Iterations 0
DILUPBiCGStab:  Solving for CO2, Initial residual = 0.00344926, Final residual = 2.58659e-09, No Iterations 3
DILUPBiCGStab:  Solving for h, Initial residual = 0.00399997, Final residual = 2.51504e-09, No Iterations 3
min/max(T) = 299.695, 1044.98
GAMGPCG:  Solving for p_rgh, Initial residual = 0.0195527, Final residual = 6.01675e-07, No Iterations 4
diagonal:  Solving for rho, Initial residual = 0, Final residual = 0, No Iterations 0
time step continuity errors : sum local = 3.53954e-08, global = 1.53006e-09, cumulative = -2.69336e-07
GAMGPCG:  Solving for p_rgh, Initial residual = 0.00260005, Final residual = 1.5229e-07, No Iterations 4
diagonal:  Solving for rho, Initial residual = 0, Final residual = 0, No Iterations 0
time step continuity errors : sum local = 8.62774e-09, global = 8.20857e-10, cumulative = -2.68515e-07
DILUPBiCGStab:  Solving for omega, Initial residual = 0.000127449, Final residual = 1.69788e-09, No Iterations 2
DILUPBiCGStab:  Solving for k, Initial residual = 0.00731039, Final residual = 7.32077e-10, No Iterations 3

ExecutionTime = 0.72 s  ClockTime = 1 s

    Overall     = 0.00176996, 0.01
Time = 255

diagonal:  Solving for rho, Initial residual = 0, Final residual = 0, No Iterations 0

Execution time for mesh.update() = 0 s

DILUPBiCGStab:  Solving for Ux, Initial residual = 0.00592265, Final residual = 4.76574e-09, No Iterations 3
DILUPBiCGStab:  Solving for Uy, Initial residual = 0.00832807, Final residual = 5.47302e-09, No Iterations 3
DILUPBiCGStab:  Solving for O2, Initial residual = 0.00343882, Final residual = 2.5189e-09, No Iterations 3
DILUPBiCGStab:  Solving for H2O, Initial residual = 0.00343894, Final residual = 2.51896e-09, No Iterations 3
DILUPBiCGStab:  Solving for CH4, Initial residual = 0, Final residual = 0, No Iterations 0
DILUPBiCGStab:  Solving for CO2, Initial residual = 0.00343894, Final residual = 2.51896e-09, No Iterations 3
DILUPBiCGStab:  Solving for h, Initial residual = 0.00399642, Final residual = 2.42142e-09, No Iterations 3
min/max(T) = 299.7, 1044.98
GAMGPCG:  Solving for p_rgh, Initial residual = 0.0196463, Final residual = 7.95574e-07, No Iterations 4
diagonal:  Solving for rho, Initial residual = 0, Final residual = 0, No Iterations 0
time step continuity errors : sum local = 4.68508e-08, global = 4.25068e-09, cumulative = -2.64265e-07
GAMGPCG:  Solving for p_rgh, Initial residual = 0.00257086, Final residual = 1.61528e-07, No Iterations 4
diagonal:  Solving for rho, Initial residual = 0, Final residual = 0, No Iterations 0
time step continuity errors : sum local = 9.03039e-09, global = 7.68187e-10, cumulative = -2.63496e-07
DILUPBiCGStab:  Solving for omega, Initial residual = 0.000126706, Final residual = 1.66644e-09, No Iterations 2
DILUPBiCGStab:  Solving for k, Initial residual = 0.0073496, Final residual = 4.22369e-09, No Iterations 3

ExecutionTime = 0.83 s  ClockTime = 1 s

    Overall     = 0.00176528, 0.01
Time = 256

diagonal:  Solving for rho, Initial residual = 0, Final residual = 0, No Iterations 0

Execution time for mesh.update() = 0.01 s

DILUPBiCGStab:  Solving for Ux, Initial residual = 0.00592237, Final residual = 4.97667e-09, No Iterations 3
DILUPBiCGStab:  Solving for Uy, Initial residual = 0.00828877, Final residual = 5.64494e-09, No Iterations 3
DILUPBiCGStab:  Solving for O2, Initial residual = 0.00343028, Final residual = 2.57884e-09, No Iterations 3
DILUPBiCGStab:  Solving for H2O, Initial residual = 0.00343013, Final residual = 2.57886e-09, No Iterations 3
DILUPBiCGStab:  Solving for CH4, Initial residual = 0, Final residual = 0, No Iterations 0
DILUPBiCGStab:  Solving for CO2, Initial residual = 0.00343013, Final residual = 2.57886e-09, No Iterations 3
DILUPBiCGStab:  Solving for h, Initial residual = 0.0039888, Final residual = 2.45697e-09, No Iterations 3
min/max(T) = 299.714, 1044.98
GAMGPCG:  Solving for p_rgh, Initial residual = 0.0193524, Final residual = 5.11442e-07, No Iterations 4
diagonal:  Solving for rho, Initial residual = 0, Final residual = 0, No Iterations 0
time step continuity errors : sum local = 3.01962e-08, global = -1.44052e-09, cumulative = -2.64937e-07
GAMGPCG:  Solving for p_rgh, Initial residual = 0.00259452, Final residual = 1.3589e-07, No Iterations 4
diagonal:  Solving for rho, Initial residual = 0, Final residual = 0, No Iterations 0
time step continuity errors : sum local = 7.74538e-09, global = 5.30577e-10, cumulative = -2.64406e-07
DILUPBiCGStab:  Solving for omega, Initial residual = 0.000127396, Final residual = 1.68846e-09, No Iterations 2
DILUPBiCGStab:  Solving for k, Initial residual = 0.00740013, Final residual = 3.22622e-09, No Iterations 3

ExecutionTime = 0.95 s  ClockTime = 1 s

    Overall     = 0.00177856, 0.01
Time = 257

diagonal:  Solving for rho, Initial residual = 0, Final residual = 0, No Iterations 0

Execution time for mesh.update() = 0 s

DILUPBiCGStab:  Solving for Ux, Initial residual = 0.00591765, Final residual = 5.47794e-09, No Iterations 3
DILUPBiCGStab:  Solving for Uy, Initial residual = 0.00827102, Final residual = 5.39199e-09, No Iterations 3
DILUPBiCGStab:  Solving for O2, Initial residual = 0.00341915, Final residual = 2.39839e-09, No Iterations 3
DILUPBiCGStab:  Solving for H2O, Initial residual = 0.00341923, Final residual = 2.39842e-09, No Iterations 3
DILUPBiCGStab:  Solving for CH4, Initial residual = 0, Final residual = 0, No Iterations 0
DILUPBiCGStab:  Solving for CO2, Initial residual = 0.00341923, Final residual = 2.39843e-09, No Iterations 3
DILUPBiCGStab:  Solving for h, Initial residual = 0.00398412, Final residual = 2.42288e-09, No Iterations 3
min/max(T) = 299.712, 1044.98
GAMGPCG:  Solving for p_rgh, Initial residual = 0.0195077, Final residual = 6.89692e-07, No Iterations 4
diagonal:  Solving for rho, Initial residual = 0, Final residual = 0, No Iterations 0
time step continuity errors : sum local = 4.04745e-08, global = 2.02747e-09, cumulative = -2.62379e-07
GAMGPCG:  Solving for p_rgh, Initial residual = 0.00248917, Final residual = 1.47494e-07, No Iterations 4
diagonal:  Solving for rho, Initial residual = 0, Final residual = 0, No Iterations 0
time step continuity errors : sum local = 8.21955e-09, global = 5.67085e-10, cumulative = -2.61812e-07
DILUPBiCGStab:  Solving for omega, Initial residual = 0.000126345, Final residual = 1.64604e-09, No Iterations 2
DILUPBiCGStab:  Solving for k, Initial residual = 0.00744, Final residual = 2.77101e-09, No Iterations 3

ExecutionTime = 1.07 s  ClockTime = 1 s

    Overall     = 0.00177224, 0.01
Time = 258

diagonal:  Solving for rho, Initial residual = 0, Final residual = 0, No Iterations 0

Execution time for mesh.update() = 0 s

DILUPBiCGStab:  Solving for Ux, Initial residual = 0.00591592, Final residual = 5.3266e-09, No Iterations 3
DILUPBiCGStab:  Solving for Uy, Initial residual = 0.0082334, Final residual = 5.71987e-09, No Iterations 3
DILUPBiCGStab:  Solving for O2, Initial residual = 0.00340748, Final residual = 2.49833e-09, No Iterations 3
DILUPBiCGStab:  Solving for H2O, Initial residual = 0.00340727, Final residual = 2.49832e-09, No Iterations 3
DILUPBiCGStab:  Solving for CH4, Initial residual = 0, Final residual = 0, No Iterations 0
DILUPBiCGStab:  Solving for CO2, Initial residual = 0.00340727, Final residual = 2.49832e-09, No Iterations 3
DILUPBiCGStab:  Solving for h, Initial residual = 0.00397647, Final residual = 2.48613e-09, No Iterations 3
min/max(T) = 299.747, 1044.98
GAMGPCG:  Solving for p_rgh, Initial residual = 0.0198236, Final residual = 3.68183e-07, No Iterations 4
diagonal:  Solving for rho, Initial residual = 0, Final residual = 0, No Iterations 0
time step continuity errors : sum local = 2.15647e-08, global = 4.06424e-11, cumulative = -2.61771e-07
GAMGPCG:  Solving for p_rgh, Initial residual = 0.0025293, Final residual = 1.49065e-07, No Iterations 4
diagonal:  Solving for rho, Initial residual = 0, Final residual = 0, No Iterations 0
time step continuity errors : sum local = 8.41756e-09, global = 6.50895e-10, cumulative = -2.6112e-07
DILUPBiCGStab:  Solving for omega, Initial residual = 0.00012733, Final residual = 1.74044e-09, No Iterations 2
DILUPBiCGStab:  Solving for k, Initial residual = 0.00746804, Final residual = 2.92037e-09, No Iterations 3

ExecutionTime = 1.18 s  ClockTime = 1 s

    Overall     = 0.00178359, 0.01
Time = 259

diagonal:  Solving for rho, Initial residual = 0, Final residual = 0, No Iterations 0

Execution time for mesh.update() = 0 s

DILUPBiCGStab:  Solving for Ux, Initial residual = 0.00594271, Final residual = 5.83071e-09, No Iterations 3
DILUPBiCGStab:  Solving for Uy, Initial residual = 0.00824315, Final residual = 6.03333e-09, No Iterations 3
DILUPBiCGStab:  Solving for O2, Initial residual = 0.00340098, Final residual = 2.44032e-09, No Iterations 3
DILUPBiCGStab:  Solving for H2O, Initial residual = 0.00340101, Final residual = 2.44028e-09, No Iterations 3
DILUPBiCGStab:  Solving for CH4, Initial residual = 0, Final residual = 0, No Iterations 0
DILUPBiCGStab:  Solving for CO2, Initial residual = 0.00340101, Final residual = 2.44028e-09, No Iterations 3
DILUPBiCGStab:  Solving for h, Initial residual = 0.0039762, Final residual = 2.49335e-09, No Iterations 3
min/max(T) = 299.717, 1044.98
GAMGPCG:  Solving for p_rgh, Initial residual = 0.0197273, Final residual = 6.47268e-07, No Iterations 4
diagonal:  Solving for rho, Initial residual = 0, Final residual = 0, No Iterations 0
time step continuity errors : sum local = 3.75227e-08, global = -1.10074e-09, cumulative = -2.62221e-07
GAMGPCG:  Solving for p_rgh, Initial residual = 0.00249813, Final residual = 1.4536e-07, No Iterations 4
diagonal:  Solving for rho, Initial residual = 0, Final residual = 0, No Iterations 0
time step continuity errors : sum local = 8.0793e-09, global = 4.95992e-10, cumulative = -2.61725e-07
DILUPBiCGStab:  Solving for omega, Initial residual = 0.000127649, Final residual = 1.83807e-09, No Iterations 2
DILUPBiCGStab:  Solving for k, Initial residual = 0.00751552, Final residual = 3.36161e-09, No Iterations 3

ExecutionTime = 1.3 s  ClockTime = 1 s

    Overall     = 0.00177439, 0.01
Time = 260

diagonal:  Solving for rho, Initial residual = 0, Final residual = 0, No Iterations 0

Execution time for mesh.update() = 0 s

DILUPBiCGStab:  Solving for Ux, Initial residual = 0.00594154, Final residual = 5.87988e-09, No Iterations 3
DILUPBiCGStab:  Solving for Uy, Initial residual = 0.00821096, Final residual = 6.32503e-09, No Iterations 3
GAMGPCG:  Solving for G, Initial residual = 0.13671, Final residual = 3.29988e-05, No Iterations 6
DILUPBiCGStab:  Solving for O2, Initial residual = 0.00339264, Final residual = 2.46212e-09, No Iterations 3
DILUPBiCGStab:  Solving for H2O, Initial residual = 0.00339242, Final residual = 2.46209e-09, No Iterations 3
DILUPBiCGStab:  Solving for CH4, Initial residual = 0, Final residual = 0, No Iterations 0
DILUPBiCGStab:  Solving for CO2, Initial residual = 0.00339243, Final residual = 2.46209e-09, No Iterations 3
DILUPBiCGStab:  Solving for h, Initial residual = 0.00396952, Final residual = 2.56516e-09, No Iterations 3
min/max(T) = 299.788, 1044.98
GAMGPCG:  Solving for p_rgh, Initial residual = 0.0198918, Final residual = 3.73586e-07, No Iterations 4
diagonal:  Solving for rho, Initial residual = 0, Final residual = 0, No Iterations 0
time step continuity errors : sum local = 2.16601e-08, global = 1.84112e-09, cumulative = -2.59884e-07
GAMGPCG:  Solving for p_rgh, Initial residual = 0.0025178, Final residual = 1.54816e-07, No Iterations 4
diagonal:  Solving for rho, Initial residual = 0, Final residual = 0, No Iterations 0
time step continuity errors : sum local = 8.63068e-09, global = 6.36942e-10, cumulative = -2.59247e-07
DILUPBiCGStab:  Solving for omega, Initial residual = 0.000127629, Final residual = 1.90839e-09, No Iterations 2
DILUPBiCGStab:  Solving for k, Initial residual = 0.0075288, Final residual = 3.70047e-09, No Iterations 3

ExecutionTime = 1.55 s  ClockTime = 2 s

    Overall     = 0.0017794, 0.01
Time = 261

diagonal:  Solving for rho, Initial residual = 0, Final residual = 0, No Iterations 0

Execution time for mesh.update() = 0 s

DILUPBiCGStab:  Solving for Ux, Initial residual = 0.00595818, Final residual = 6.28644e-09, No Iterations 3
DILUPBiCGStab:  Solving for Uy, Initial residual = 0.00820722, Final residual = 6.46519e-09, No Iterations 3
DILUPBiCGStab:  Solving for O2, Initial residual = 0.0033909, Final residual = 2.5227e-09, No Iterations 3
DILUPBiCGStab:  Solving for H2O, Initial residual = 0.00339094, Final residual = 2.52265e-09, No Iterations 3
DILUPBiCGStab:  Solving for CH4, Initial residual = 0, Final residual = 0, No Iterations 0
DILUPBiCGStab:  Solving for CO2, Initial residual = 0.00339094, Final residual = 2.52265e-09, No Iterations 3
DILUPBiCGStab:  Solving for h, Initial residual = 0.00397554, Final residual = 2.5945e-09, No Iterations 3
min/max(T) = 299.719, 1044.98
GAMGPCG:  Solving for p_rgh, Initial residual = 0.0202029, Final residual = 6.81271e-07, No Iterations 4
diagonal:  Solving for rho, Initial residual = 0, Final residual = 0, No Iterations 0
time step continuity errors : sum local = 3.92378e-08, global = -1.02165e-10, cumulative = -2.59349e-07
GAMGPCG:  Solving for p_rgh, Initial residual = 0.00251765, Final residual = 1.53358e-07, No Iterations 4
diagonal:  Solving for rho, Initial residual = 0, Final residual = 0, No Iterations 0
time step continuity errors : sum local = 8.47157e-09, global = 4.11485e-10, cumulative = -2.58938e-07
DILUPBiCGStab:  Solving for omega, Initial residual = 0.00012651, Final residual = 2.0191e-09, No Iterations 2
DILUPBiCGStab:  Solving for k, Initial residual = 0.00755899, Final residual = 4.14409e-09, No Iterations 3

ExecutionTime = 1.66 s  ClockTime = 2 s

    Overall     = 0.00177019, 0.01
Time = 262

diagonal:  Solving for rho, Initial residual = 0, Final residual = 0, No Iterations 0

Execution time for mesh.update() = 0 s

DILUPBiCGStab:  Solving for Ux, Initial residual = 0.00595233, Final residual = 6.47447e-09, No Iterations 3
DILUPBiCGStab:  Solving for Uy, Initial residual = 0.00820401, Final residual = 6.76424e-09, No Iterations 3
DILUPBiCGStab:  Solving for O2, Initial residual = 0.00338303, Final residual = 2.34996e-09, No Iterations 3
DILUPBiCGStab:  Solving for H2O, Initial residual = 0.00338282, Final residual = 2.35e-09, No Iterations 3
DILUPBiCGStab:  Solving for CH4, Initial residual = 0, Final residual = 0, No Iterations 0
DILUPBiCGStab:  Solving for CO2, Initial residual = 0.00338282, Final residual = 2.35e-09, No Iterations 3
DILUPBiCGStab:  Solving for h, Initial residual = 0.00396541, Final residual = 2.43899e-09, No Iterations 3
min/max(T) = 299.835, 1044.98
GAMGPCG:  Solving for p_rgh, Initial residual = 0.019803, Final residual = 4.86182e-07, No Iterations 4
diagonal:  Solving for rho, Initial residual = 0, Final residual = 0, No Iterations 0
time step continuity errors : sum local = 2.83518e-08, global = 4.03941e-09, cumulative = -2.54898e-07
GAMGPCG:  Solving for p_rgh, Initial residual = 0.0024633, Final residual = 1.90563e-07, No Iterations 4
diagonal:  Solving for rho, Initial residual = 0, Final residual = 0, No Iterations 0
time step continuity errors : sum local = 1.04411e-08, global = 6.56588e-10, cumulative = -2.54242e-07
DILUPBiCGStab:  Solving for omega, Initial residual = 0.000126748, Final residual = 2.06022e-09, No Iterations 2
DILUPBiCGStab:  Solving for k, Initial residual = 0.00758031, Final residual = 4.74313e-09, No Iterations 3

ExecutionTime = 1.78 s  ClockTime = 2 s

    Overall     = 0.00176249, 0.01
Time = 263

diagonal:  Solving for rho, Initial residual = 0, Final residual = 0, No Iterations 0

Execution time for mesh.update() = 0 s

DILUPBiCGStab:  Solving for Ux, Initial residual = 0.00597476, Final residual = 6.99645e-09, No Iterations 3
DILUPBiCGStab:  Solving for Uy, Initial residual = 0.00819079, Final residual = 6.91769e-09, No Iterations 3
DILUPBiCGStab:  Solving for O2, Initial residual = 0.00338845, Final residual = 2.15182e-09, No Iterations 3
DILUPBiCGStab:  Solving for H2O, Initial residual = 0.0033885, Final residual = 2.15184e-09, No Iterations 3
DILUPBiCGStab:  Solving for CH4, Initial residual = 0, Final residual = 0, No Iterations 0
DILUPBiCGStab:  Solving for CO2, Initial residual = 0.0033885, Final residual = 2.15183e-09, No Iterations 3
DILUPBiCGStab:  Solving for h, Initial residual = 0.00397791, Final residual = 2.29135e-09, No Iterations 3
min/max(T) = 299.717, 1044.98
GAMGPCG:  Solving for p_rgh, Initial residual = 0.0203252, Final residual = 6.3846e-07, No Iterations 4
diagonal:  Solving for rho, Initial residual = 0, Final residual = 0, No Iterations 0
time step continuity errors : sum local = 3.68329e-08, global = 1.7421e-10, cumulative = -2.54067e-07
GAMGPCG:  Solving for p_rgh, Initial residual = 0.00261048, Final residual = 9.37083e-07, No Iterations 3
diagonal:  Solving for rho, Initial residual = 0, Final residual = 0, No Iterations 0
time step continuity errors : sum local = 5.16908e-08, global = 2.91035e-09, cumulative = -2.51157e-07
DILUPBiCGStab:  Solving for omega, Initial residual = 0.000126024, Final residual = 2.06201e-09, No Iterations 2
DILUPBiCGStab:  Solving for k, Initial residual = 0.00761194, Final residual = 5.55501e-09, No Iterations 3

ExecutionTime = 1.89 s  ClockTime = 2 s

    Overall     = 0.00175952, 0.01
Time = 264

diagonal:  Solving for rho, Initial residual = 0, Final residual = 0, No Iterations 0

Execution time for mesh.update() = 0 s

DILUPBiCGStab:  Solving for Ux, Initial residual = 0.00597741, Final residual = 5.94279e-09, No Iterations 3
DILUPBiCGStab:  Solving for Uy, Initial residual = 0.00818533, Final residual = 7.23107e-09, No Iterations 3
DILUPBiCGStab:  Solving for O2, Initial residual = 0.00338577, Final residual = 2.00985e-09, No Iterations 3
DILUPBiCGStab:  Solving for H2O, Initial residual = 0.0033857, Final residual = 2.00991e-09, No Iterations 3
DILUPBiCGStab:  Solving for CH4, Initial residual = 0, Final residual = 0, No Iterations 0
DILUPBiCGStab:  Solving for CO2, Initial residual = 0.0033857, Final residual = 2.0099e-09, No Iterations 3
DILUPBiCGStab:  Solving for h, Initial residual = 0.003976, Final residual = 2.33453e-09, No Iterations 3
min/max(T) = 299.884, 1044.98
GAMGPCG:  Solving for p_rgh, Initial residual = 0.020093, Final residual = 5.76761e-07, No Iterations 4
diagonal:  Solving for rho, Initial residual = 0, Final residual = 0, No Iterations 0
time step continuity errors : sum local = 3.32996e-08, global = 9.81456e-10, cumulative = -2.50176e-07
GAMGPCG:  Solving for p_rgh, Initial residual = 0.00248538, Final residual = 1.72799e-07, No Iterations 4
diagonal:  Solving for rho, Initial residual = 0, Final residual = 0, No Iterations 0
time step continuity errors : sum local = 9.43718e-09, global = 7.75422e-10, cumulative = -2.494e-07
DILUPBiCGStab:  Solving for omega, Initial residual = 0.000126561, Final residual = 1.96757e-09, No Iterations 2
DILUPBiCGStab:  Solving for k, Initial residual = 0.00763963, Final residual = 5.30724e-09, No Iterations 3

ExecutionTime = 2.01 s  ClockTime = 2 s

    Overall     = 0.00175473, 0.01
Time = 265

diagonal:  Solving for rho, Initial residual = 0, Final residual = 0, No Iterations 0

Execution time for mesh.update() = 0 s

DILUPBiCGStab:  Solving for Ux, Initial residual = 0.00599612, Final residual = 5.61883e-09, No Iterations 3
DILUPBiCGStab:  Solving for Uy, Initial residual = 0.00818302, Final residual = 7.80261e-09, No Iterations 3
DILUPBiCGStab:  Solving for O2, Initial residual = 0.00339178, Final residual = 2.00895e-09, No Iterations 3
DILUPBiCGStab:  Solving for H2O, Initial residual = 0.00339183, Final residual = 2.00896e-09, No Iterations 3
DILUPBiCGStab:  Solving for CH4, Initial residual = 0, Final residual = 0, No Iterations 0
DILUPBiCGStab:  Solving for CO2, Initial residual = 0.00339183, Final residual = 2.00895e-09, No Iterations 3
DILUPBiCGStab:  Solving for h, Initial residual = 0.00399219, Final residual = 2.04687e-09, No Iterations 3
min/max(T) = 299.708, 1044.98
GAMGPCG:  Solving for p_rgh, Initial residual = 0.0210124, Final residual = 6.22906e-07, No Iterations 4
diagonal:  Solving for rho, Initial residual = 0, Final residual = 0, No Iterations 0
time step continuity errors : sum local = 3.58236e-08, global = 1.72112e-09, cumulative = -2.47679e-07
GAMGPCG:  Solving for p_rgh, Initial residual = 0.00258765, Final residual = 8.37293e-07, No Iterations 3
diagonal:  Solving for rho, Initial residual = 0, Final residual = 0, No Iterations 0
time step continuity errors : sum local = 4.64909e-08, global = -5.58214e-10, cumulative = -2.48237e-07
DILUPBiCGStab:  Solving for omega, Initial residual = 0.000125571, Final residual = 1.83024e-09, No Iterations 2
DILUPBiCGStab:  Solving for k, Initial residual = 0.00767405, Final residual = 8.7785e-10, No Iterations 3

ExecutionTime = 2.12 s  ClockTime = 2 s

    Overall     = 0.00174237, 0.01
Time = 266

diagonal:  Solving for rho, Initial residual = 0, Final residual = 0, No Iterations 0

Execution time for mesh.update() = 0 s

DILUPBiCGStab:  Solving for Ux, Initial residual = 0.00602016, Final residual = 5.74852e-09, No Iterations 3
DILUPBiCGStab:  Solving for Uy, Initial residual = 0.00820495, Final residual = 8.12139e-09, No Iterations 3
DILUPBiCGStab:  Solving for O2, Initial residual = 0.00337912, Final residual = 2.02711e-09, No Iterations 3
DILUPBiCGStab:  Solving for H2O, Initial residual = 0.00337904, Final residual = 2.02712e-09, No Iterations 3
DILUPBiCGStab:  Solving for CH4, Initial residual = 0, Final residual = 0, No Iterations 0
DILUPBiCGStab:  Solving for CO2, Initial residual = 0.00337905, Final residual = 2.02712e-09, No Iterations 3
DILUPBiCGStab:  Solving for h, Initial residual = 0.00397757, Final residual = 2.26879e-09, No Iterations 3
min/max(T) = 299.934, 1044.98
GAMGPCG:  Solving for p_rgh, Initial residual = 0.0206333, Final residual = 5.95733e-07, No Iterations 4
diagonal:  Solving for rho, Initial residual = 0, Final residual = 0, No Iterations 0
time step continuity errors : sum local = 3.41979e-08, global = 7.50679e-10, cumulative = -2.47487e-07
GAMGPCG:  Solving for p_rgh, Initial residual = 0.00264058, Final residual = 1.65394e-07, No Iterations 4
diagonal:  Solving for rho, Initial residual = 0, Final residual = 0, No Iterations 0
time step continuity errors : sum local = 9.21217e-09, global = 8.55803e-10, cumulative = -2.46631e-07
DILUPBiCGStab:  Solving for omega, Initial residual = 0.000125977, Final residual = 1.8281e-09, No Iterations 2
DILUPBiCGStab:  Solving for k, Initial residual = 0.00770223, Final residual = 9.83858e-10, No Iterations 3

ExecutionTime = 2.24 s  ClockTime = 2 s

    Overall     = 0.00174145, 0.01
Time = 267

diagonal:  Solving for rho, Initial residual = 0, Final residual = 0, No Iterations 0

Execution time for mesh.update() = 0 s

DILUPBiCGStab:  Solving for Ux, Initial residual = 0.00600763, Final residual = 5.3153e-09, No Iterations 3
DILUPBiCGStab:  Solving for Uy, Initial residual = 0.00818488, Final residual = 9.70944e-09, No Iterations 3
DILUPBiCGStab:  Solving for O2, Initial residual = 0.00337348, Final residual = 1.97891e-09, No Iterations 3
DILUPBiCGStab:  Solving for H2O, Initial residual = 0.00337353, Final residual = 1.97891e-09, No Iterations 3
DILUPBiCGStab:  Solving for CH4, Initial residual = 0, Final residual = 0, No Iterations 0
DILUPBiCGStab:  Solving for CO2, Initial residual = 0.00337353, Final residual = 1.97891e-09, No Iterations 3
DILUPBiCGStab:  Solving for h, Initial residual = 0.00397437, Final residual = 1.88426e-09, No Iterations 3
min/max(T) = 299.696, 1044.98
GAMGPCG:  Solving for p_rgh, Initial residual = 0.0205645, Final residual = 6.15188e-07, No Iterations 4
diagonal:  Solving for rho, Initial residual = 0, Final residual = 0, No Iterations 0
time step continuity errors : sum local = 3.51879e-08, global = 5.61776e-10, cumulative = -2.46069e-07
GAMGPCG:  Solving for p_rgh, Initial residual = 0.00253443, Final residual = 8.72831e-07, No Iterations 3
diagonal:  Solving for rho, Initial residual = 0, Final residual = 0, No Iterations 0
time step continuity errors : sum local = 4.82258e-08, global = -3.16978e-11, cumulative = -2.46101e-07
DILUPBiCGStab:  Solving for omega, Initial residual = 0.000126581, Final residual = 1.76713e-09, No Iterations 2
DILUPBiCGStab:  Solving for k, Initial residual = 0.00772773, Final residual = 4.2494e-09, No Iterations 3

ExecutionTime = 2.35 s  ClockTime = 2 s

    Overall     = 0.00171967, 0.01
Time = 268

diagonal:  Solving for rho, Initial residual = 0, Final residual = 0, No Iterations 0

Execution time for mesh.update() = 0 s

DILUPBiCGStab:  Solving for Ux, Initial residual = 0.0060242, Final residual = 5.3125e-09, No Iterations 3
DILUPBiCGStab:  Solving for Uy, Initial residual = 0.00819208, Final residual = 8.73739e-09, No Iterations 3
DILUPBiCGStab:  Solving for O2, Initial residual = 0.00336639, Final residual = 2.03383e-09, No Iterations 3
DILUPBiCGStab:  Solving for H2O, Initial residual = 0.00336631, Final residual = 2.03387e-09, No Iterations 3
DILUPBiCGStab:  Solving for CH4, Initial residual = 0, Final residual = 0, No Iterations 0
DILUPBiCGStab:  Solving for CO2, Initial residual = 0.00336631, Final residual = 2.03387e-09, No Iterations 3
DILUPBiCGStab:  Solving for h, Initial residual = 0.00396839, Final residual = 2.00894e-09, No Iterations 3
min/max(T) = 299.986, 1044.98
GAMGPCG:  Solving for p_rgh, Initial residual = 0.0203608, Final residual = 5.547e-07, No Iterations 4
diagonal:  Solving for rho, Initial residual = 0, Final residual = 0, No Iterations 0
time step continuity errors : sum local = 3.163e-08, global = -3.54463e-10, cumulative = -2.46455e-07
GAMGPCG:  Solving for p_rgh, Initial residual = 0.0025076, Final residual = 9.82766e-07, No Iterations 3
diagonal:  Solving for rho, Initial residual = 0, Final residual = 0, No Iterations 0
time step continuity errors : sum local = 5.36634e-08, global = -1.04611e-09, cumulative = -2.47501e-07
DILUPBiCGStab:  Solving for omega, Initial residual = 0.000126863, Final residual = 1.82372e-09, No Iterations 2
DILUPBiCGStab:  Solving for k, Initial residual = 0.00773834, Final residual = 4.02779e-09, No Iterations 3

ExecutionTime = 2.47 s  ClockTime = 3 s

    Overall     = 0.00171653, 0.01
Time = 269

diagonal:  Solving for rho, Initial residual = 0, Final residual = 0, No Iterations 0

Execution time for mesh.update() = 0 s

DILUPBiCGStab:  Solving for Ux, Initial residual = 0.00604805, Final residual = 5.20525e-09, No Iterations 3
DILUPBiCGStab:  Solving for Uy, Initial residual = 0.00818011, Final residual = 9.23947e-10, No Iterations 3
DILUPBiCGStab:  Solving for O2, Initial residual = 0.0033658, Final residual = 2.39499e-09, No Iterations 3
DILUPBiCGStab:  Solving for H2O, Initial residual = 0.00336586, Final residual = 2.39499e-09, No Iterations 3
DILUPBiCGStab:  Solving for CH4, Initial residual = 0, Final residual = 0, No Iterations 0
DILUPBiCGStab:  Solving for CO2, Initial residual = 0.00336586, Final residual = 2.39498e-09, No Iterations 3
DILUPBiCGStab:  Solving for h, Initial residual = 0.00397531, Final residual = 2.37082e-09, No Iterations 3
min/max(T) = 299.677, 1044.98
GAMGPCG:  Solving for p_rgh, Initial residual = 0.0210858, Final residual = 6.27538e-07, No Iterations 4
diagonal:  Solving for rho, Initial residual = 0, Final residual = 0, No Iterations 0
time step continuity errors : sum local = 3.59432e-08, global = 1.40043e-11, cumulative = -2.47487e-07
GAMGPCG:  Solving for p_rgh, Initial residual = 0.00254566, Final residual = 8.79517e-07, No Iterations 3
diagonal:  Solving for rho, Initial residual = 0, Final residual = 0, No Iterations 0
time step continuity errors : sum local = 4.85995e-08, global = -5.06273e-10, cumulative = -2.47994e-07
DILUPBiCGStab:  Solving for omega, Initial residual = 0.000127282, Final residual = 1.85151e-09, No Iterations 2
DILUPBiCGStab:  Solving for k, Initial residual = 0.007767, Final residual = 2.17185e-09, No Iterations 3

ExecutionTime = 2.58 s  ClockTime = 3 s

    Overall     = 0.00169231, 0.01
Time = 270

diagonal:  Solving for rho, Initial residual = 0, Final residual = 0, No Iterations 0

Execution time for mesh.update() = 0 s

DILUPBiCGStab:  Solving for Ux, Initial residual = 0.00607712, Final residual = 5.33268e-09, No Iterations 3
DILUPBiCGStab:  Solving for Uy, Initial residual = 0.00818605, Final residual = 9.55382e-09, No Iterations 3
GAMGPCG:  Solving for G, Initial residual = 0.167677, Final residual = 4.72224e-05, No Iterations 5
DILUPBiCGStab:  Solving for O2, Initial residual = 0.00336158, Final residual = 2.53478e-09, No Iterations 3
DILUPBiCGStab:  Solving for H2O, Initial residual = 0.0033615, Final residual = 2.53487e-09, No Iterations 3
DILUPBiCGStab:  Solving for CH4, Initial residual = 0, Final residual = 0, No Iterations 0
DILUPBiCGStab:  Solving for CO2, Initial residual = 0.0033615, Final residual = 2.53487e-09, No Iterations 3
DILUPBiCGStab:  Solving for h, Initial residual = 0.00396904, Final residual = 2.48555e-09, No Iterations 3
min/max(T) = 300, 1044.98
GAMGPCG:  Solving for p_rgh, Initial residual = 0.0210397, Final residual = 5.54e-07, No Iterations 4
diagonal:  Solving for rho, Initial residual = 0, Final residual = 0, No Iterations 0
time step continuity errors : sum local = 3.18182e-08, global = -6.00032e-10, cumulative = -2.48594e-07
GAMGPCG:  Solving for p_rgh, Initial residual = 0.0026229, Final residual = 8.75469e-07, No Iterations 3
diagonal:  Solving for rho, Initial residual = 0, Final residual = 0, No Iterations 0
time step continuity errors : sum local = 4.8869e-08, global = 4.21994e-11, cumulative = -2.48551e-07
DILUPBiCGStab:  Solving for omega, Initial residual = 0.000128111, Final residual = 1.95366e-09, No Iterations 2
DILUPBiCGStab:  Solving for k, Initial residual = 0.00780804, Final residual = 8.67705e-10, No Iterations 3

ExecutionTime = 2.83 s  ClockTime = 3 s

    Overall     = 0.00168764, 0.01
Time = 271

diagonal:  Solving for rho, Initial residual = 0, Final residual = 0, No Iterations 0

Execution time for mesh.update() = 0 s

DILUPBiCGStab:  Solving for Ux, Initial residual = 0.00609025, Final residual = 5.37574e-09, No Iterations 3
DILUPBiCGStab:  Solving for Uy, Initial residual = 0.00815087, Final residual = 9.50896e-10, No Iterations 3
DILUPBiCGStab:  Solving for O2, Initial residual = 0.00337112, Final residual = 2.77349e-09, No Iterations 3
DILUPBiCGStab:  Solving for H2O, Initial residual = 0.00337119, Final residual = 2.7735e-09, No Iterations 3
DILUPBiCGStab:  Solving for CH4, Initial residual = 0, Final residual = 0, No Iterations 0
DILUPBiCGStab:  Solving for CO2, Initial residual = 0.00337119, Final residual = 2.7735e-09, No Iterations 3
DILUPBiCGStab:  Solving for h, Initial residual = 0.00398568, Final residual = 2.63302e-09, No Iterations 3
min/max(T) = 299.655, 1044.98
GAMGPCG:  Solving for p_rgh, Initial residual = 0.0222053, Final residual = 5.93844e-07, No Iterations 4
diagonal:  Solving for rho, Initial residual = 0, Final residual = 0, No Iterations 0
time step continuity errors : sum local = 3.42101e-08, global = 2.18857e-09, cumulative = -2.46363e-07
GAMGPCG:  Solving for p_rgh, Initial residual = 0.00260109, Final residual = 8.81672e-07, No Iterations 3
diagonal:  Solving for rho, Initial residual = 0, Final residual = 0, No Iterations 0
time step continuity errors : sum local = 4.88398e-08, global = 2.94131e-11, cumulative = -2.46333e-07
DILUPBiCGStab:  Solving for omega, Initial residual = 0.000127991, Final residual = 1.97584e-09, No Iterations 2
DILUPBiCGStab:  Solving for k, Initial residual = 0.00783823, Final residual = 7.08376e-09, No Iterations 3

ExecutionTime = 2.94 s  ClockTime = 3 s

    Overall     = 0.00166281, 0.01
Time = 272

diagonal:  Solving for rho, Initial residual = 0, Final residual = 0, No Iterations 0

Execution time for mesh.update() = 0 s

DILUPBiCGStab:  Solving for Ux, Initial residual = 0.006112, Final residual = 5.38812e-09, No Iterations 3
DILUPBiCGStab:  Solving for Uy, Initial residual = 0.00815739, Final residual = 9.291e-10, No Iterations 3
DILUPBiCGStab:  Solving for O2, Initial residual = 0.00337545, Final residual = 3.1159e-09, No Iterations 3
DILUPBiCGStab:  Solving for H2O, Initial residual = 0.00337536, Final residual = 3.11613e-09, No Iterations 3
DILUPBiCGStab:  Solving for CH4, Initial residual = 0, Final residual = 0, No Iterations 0
DILUPBiCGStab:  Solving for CO2, Initial residual = 0.00337536, Final residual = 3.11613e-09, No Iterations 3
DILUPBiCGStab:  Solving for h, Initial residual = 0.00399075, Final residual = 2.98313e-09, No Iterations 3
min/max(T) = 300, 1044.98
GAMGPCG:  Solving for p_rgh, Initial residual = 0.0222015, Final residual = 5.65385e-07, No Iterations 4
diagonal:  Solving for rho, Initial residual = 0, Final residual = 0, No Iterations 0
time step continuity errors : sum local = 3.26743e-08, global = 1.0747e-09, cumulative = -2.45259e-07
GAMGPCG:  Solving for p_rgh, Initial residual = 0.00270521, Final residual = 8.51803e-07, No Iterations 3
diagonal:  Solving for rho, Initial residual = 0, Final residual = 0, No Iterations 0
time step continuity errors : sum local = 4.73055e-08, global = -3.15266e-10, cumulative = -2.45574e-07
DILUPBiCGStab:  Solving for omega, Initial residual = 0.000127858, Final residual = 2.10654e-09, No Iterations 2
DILUPBiCGStab:  Solving for k, Initial residual = 0.00787202, Final residual = 8.17551e-09, No Iterations 3

ExecutionTime = 3.05 s  ClockTime = 3 s

    Overall     = 0.00165732, 0.01
Time = 273

diagonal:  Solving for rho, Initial residual = 0, Final residual = 0, No Iterations 0

Execution time for mesh.update() = 0 s

DILUPBiCGStab:  Solving for Ux, Initial residual = 0.00613625, Final residual = 5.48739e-09, No Iterations 3
DILUPBiCGStab:  Solving for Uy, Initial residual = 0.0081449, Final residual = 8.16037e-09, No Iterations 3
DILUPBiCGStab:  Solving for O2, Initial residual = 0.00338886, Final residual = 3.30798e-09, No Iterations 3
DILUPBiCGStab:  Solving for H2O, Initial residual = 0.00338894, Final residual = 3.30802e-09, No Iterations 3
DILUPBiCGStab:  Solving for CH4, Initial residual = 0, Final residual = 0, No Iterations 0
DILUPBiCGStab:  Solving for CO2, Initial residual = 0.00338894, Final residual = 3.30802e-09, No Iterations 3
DILUPBiCGStab:  Solving for h, Initial residual = 0.00401087, Final residual = 3.26144e-09, No Iterations 3
min/max(T) = 299.626, 1044.98
GAMGPCG:  Solving for p_rgh, Initial residual = 0.0225842, Final residual = 5.7495e-07, No Iterations 4
diagonal:  Solving for rho, Initial residual = 0, Final residual = 0, No Iterations 0
time step continuity errors : sum local = 3.32934e-08, global = -1.97528e-10, cumulative = -2.45772e-07
GAMGPCG:  Solving for p_rgh, Initial residual = 0.00277716, Final residual = 8.41845e-07, No Iterations 3
diagonal:  Solving for rho, Initial residual = 0, Final residual = 0, No Iterations 0
time step continuity errors : sum local = 4.65467e-08, global = -7.38023e-10, cumulative = -2.4651e-07
DILUPBiCGStab:  Solving for omega, Initial residual = 0.000128369, Final residual = 2.12782e-09, No Iterations 2
DILUPBiCGStab:  Solving for k, Initial residual = 0.00790964, Final residual = 5.74355e-09, No Iterations 3

ExecutionTime = 3.17 s  ClockTime = 3 s

    Overall     = 0.00163237, 0.01
Time = 274

diagonal:  Solving for rho, Initial residual = 0, Final residual = 0, No Iterations 0

Execution time for mesh.update() = 0 s

DILUPBiCGStab:  Solving for Ux, Initial residual = 0.00617782, Final residual = 5.52236e-09, No Iterations 3
DILUPBiCGStab:  Solving for Uy, Initial residual = 0.0081677, Final residual = 7.25102e-09, No Iterations 3
DILUPBiCGStab:  Solving for O2, Initial residual = 0.00338902, Final residual = 3.35154e-09, No Iterations 3
DILUPBiCGStab:  Solving for H2O, Initial residual = 0.00338894, Final residual = 3.35186e-09, No Iterations 3
DILUPBiCGStab:  Solving for CH4, Initial residual = 0, Final residual = 0, No Iterations 0
DILUPBiCGStab:  Solving for CO2, Initial residual = 0.00338894, Final residual = 3.35186e-09, No Iterations 3
DILUPBiCGStab:  Solving for h, Initial residual = 0.00401461, Final residual = 3.63241e-09, No Iterations 3
min/max(T) = 299.999, 1044.98
GAMGPCG:  Solving for p_rgh, Initial residual = 0.0228344, Final residual = 5.36781e-07, No Iterations 4
diagonal:  Solving for rho, Initial residual = 0, Final residual = 0, No Iterations 0
time step continuity errors : sum local = 3.08449e-08, global = -8.3473e-10, cumulative = -2.47344e-07
GAMGPCG:  Solving for p_rgh, Initial residual = 0.00283693, Final residual = 9.17302e-07, No Iterations 3
diagonal:  Solving for rho, Initial residual = 0, Final residual = 0, No Iterations 0
time step continuity errors : sum local = 5.0993e-08, global = 4.01129e-10, cumulative = -2.46943e-07
DILUPBiCGStab:  Solving for omega, Initial residual = 0.000128998, Final residual = 2.18895e-09, No Iterations 2
DILUPBiCGStab:  Solving for k, Initial residual = 0.0079316, Final residual = 4.66374e-09, No Iterations 3

ExecutionTime = 3.28 s  ClockTime = 3 s

    Overall     = 0.00162662, 0.01
Time = 275

diagonal:  Solving for rho, Initial residual = 0, Final residual = 0, No Iterations 0

Execution time for mesh.update() = 0 s

DILUPBiCGStab:  Solving for Ux, Initial residual = 0.00617937, Final residual = 5.32143e-09, No Iterations 3
DILUPBiCGStab:  Solving for Uy, Initial residual = 0.0081441, Final residual = 7.44027e-09, No Iterations 3
DILUPBiCGStab:  Solving for O2, Initial residual = 0.00339894, Final residual = 3.2551e-09, No Iterations 3
DILUPBiCGStab:  Solving for H2O, Initial residual = 0.00339902, Final residual = 3.25514e-09, No Iterations 3
DILUPBiCGStab:  Solving for CH4, Initial residual = 0, Final residual = 0, No Iterations 0
DILUPBiCGStab:  Solving for CO2, Initial residual = 0.00339902, Final residual = 3.25514e-09, No Iterations 3
DILUPBiCGStab:  Solving for h, Initial residual = 0.00403131, Final residual = 3.50153e-09, No Iterations 3
min/max(T) = 299.598, 1044.98
GAMGPCG:  Solving for p_rgh, Initial residual = 0.0225528, Final residual = 5.69281e-07, No Iterations 4
diagonal:  Solving for rho, Initial residual = 0, Final residual = 0, No Iterations 0
time step continuity errors : sum local = 3.30124e-08, global = -2.28887e-09, cumulative = -2.49232e-07
GAMGPCG:  Solving for p_rgh, Initial residual = 0.00287878, Final residual = 9.42285e-07, No Iterations 3
diagonal:  Solving for rho, Initial residual = 0, Final residual = 0, No Iterations 0
time step continuity errors : sum local = 5.21511e-08, global = -7.32277e-10, cumulative = -2.49964e-07
DILUPBiCGStab:  Solving for omega, Initial residual = 0.000128122, Final residual = 2.13633e-09, No Iterations 2
DILUPBiCGStab:  Solving for k, Initial residual = 0.00795173, Final residual = 6.04131e-09, No Iterations 3

ExecutionTime = 3.4 s  ClockTime = 4 s

    Overall     = 0.00160154, 0.01
Time = 276

diagonal:  Solving for rho, Initial residual = 0, Final residual = 0, No Iterations 0

Execution time for mesh.update() = 0 s

DILUPBiCGStab:  Solving for Ux, Initial residual = 0.0062036, Final residual = 6.17151e-09, No Iterations 3
DILUPBiCGStab:  Solving for Uy, Initial residual = 0.00814534, Final residual = 7.19788e-09, No Iterations 3
DILUPBiCGStab:  Solving for O2, Initial residual = 0.00339758, Final residual = 3.74554e-09, No Iterations 3
DILUPBiCGStab:  Solving for H2O, Initial residual = 0.00339748, Final residual = 3.74614e-09, No Iterations 3
DILUPBiCGStab:  Solving for CH4, Initial residual = 0, Final residual = 0, No Iterations 0
DILUPBiCGStab:  Solving for CO2, Initial residual = 0.00339748, Final residual = 3.74614e-09, No Iterations 3
DILUPBiCGStab:  Solving for h, Initial residual = 0.0040311, Final residual = 3.72744e-09, No Iterations 3
min/max(T) = 299.95, 1044.98
GAMGPCG:  Solving for p_rgh, Initial residual = 0.0232117, Final residual = 5.54253e-07, No Iterations 4
diagonal:  Solving for rho, Initial residual = 0, Final residual = 0, No Iterations 0
time step continuity errors : sum local = 3.14968e-08, global = -1.23268e-09, cumulative = -2.51197e-07
GAMGPCG:  Solving for p_rgh, Initial residual = 0.00281707, Final residual = 1.17151e-07, No Iterations 4
diagonal:  Solving for rho, Initial residual = 0, Final residual = 0, No Iterations 0
time step continuity errors : sum local = 6.60261e-09, global = 1.20273e-09, cumulative = -2.49994e-07
DILUPBiCGStab:  Solving for omega, Initial residual = 0.000128852, Final residual = 2.10046e-09, No Iterations 2
DILUPBiCGStab:  Solving for k, Initial residual = 0.00796332, Final residual = 6.66443e-09, No Iterations 3

ExecutionTime = 3.51 s  ClockTime = 4 s

    Overall     = 0.00159602, 0.01
Time = 277

diagonal:  Solving for rho, Initial residual = 0, Final residual = 0, No Iterations 0

Execution time for mesh.update() = 0 s

DILUPBiCGStab:  Solving for Ux, Initial residual = 0.00621262, Final residual = 5.6586e-09, No Iterations 3
DILUPBiCGStab:  Solving for Uy, Initial residual = 0.00813386, Final residual = 7.37922e-09, No Iterations 3
DILUPBiCGStab:  Solving for O2, Initial residual = 0.00341038, Final residual = 3.65722e-09, No Iterations 3
DILUPBiCGStab:  Solving for H2O, Initial residual = 0.00341047, Final residual = 3.65727e-09, No Iterations 3
DILUPBiCGStab:  Solving for CH4, Initial residual = 0, Final residual = 0, No Iterations 0
DILUPBiCGStab:  Solving for CO2, Initial residual = 0.00341047, Final residual = 3.65727e-09, No Iterations 3
DILUPBiCGStab:  Solving for h, Initial residual = 0.0040481, Final residual = 4.11673e-09, No Iterations 3
min/max(T) = 299.573, 1044.98
GAMGPCG:  Solving for p_rgh, Initial residual = 0.023377, Final residual = 5.89425e-07, No Iterations 4
diagonal:  Solving for rho, Initial residual = 0, Final residual = 0, No Iterations 0
time step continuity errors : sum local = 3.40629e-08, global = -3.31498e-09, cumulative = -2.53309e-07
GAMGPCG:  Solving for p_rgh, Initial residual = 0.00286604, Final residual = 8.9242e-07, No Iterations 3
diagonal:  Solving for rho, Initial residual = 0, Final residual = 0, No Iterations 0
time step continuity errors : sum local = 4.97323e-08, global = -8.12238e-10, cumulative = -2.54121e-07
DILUPBiCGStab:  Solving for omega, Initial residual = 0.000128551, Final residual = 2.21679e-09, No Iterations 2
DILUPBiCGStab:  Solving for k, Initial residual = 0.00796819, Final residual = 7.67803e-09, No Iterations 3

ExecutionTime = 3.62 s  ClockTime = 4 s

    Overall     = 0.00157002, 0.01
Time = 278

diagonal:  Solving for rho, Initial residual = 0, Final residual = 0, No Iterations 0

Execution time for mesh.update() = 0 s

DILUPBiCGStab:  Solving for Ux, Initial residual = 0.00625956, Final residual = 6.17315e-09, No Iterations 3
DILUPBiCGStab:  Solving for Uy, Initial residual = 0.00814764, Final residual = 7.83797e-09, No Iterations 3
DILUPBiCGStab:  Solving for O2, Initial residual = 0.00340934, Final residual = 3.51928e-09, No Iterations 3
DILUPBiCGStab:  Solving for H2O, Initial residual = 0.00340924, Final residual = 3.51971e-09, No Iterations 3
DILUPBiCGStab:  Solving for CH4, Initial residual = 0, Final residual = 0, No Iterations 0
DILUPBiCGStab:  Solving for CO2, Initial residual = 0.00340924, Final residual = 3.51971e-09, No Iterations 3
DILUPBiCGStab:  Solving for h, Initial residual = 0.00404838, Final residual = 4.06882e-09, No Iterations 3
min/max(T) = 299.885, 1044.98
GAMGPCG:  Solving for p_rgh, Initial residual = 0.0233073, Final residual = 5.10635e-07, No Iterations 4
diagonal:  Solving for rho, Initial residual = 0, Final residual = 0, No Iterations 0
time step continuity errors : sum local = 2.92539e-08, global = -3.42678e-09, cumulative = -2.57548e-07
GAMGPCG:  Solving for p_rgh, Initial residual = 0.00291381, Final residual = 9.20603e-07, No Iterations 3
diagonal:  Solving for rho, Initial residual = 0, Final residual = 0, No Iterations 0
time step continuity errors : sum local = 5.16887e-08, global = 6.82743e-10, cumulative = -2.56865e-07
DILUPBiCGStab:  Solving for omega, Initial residual = 0.000129034, Final residual = 2.12481e-09, No Iterations 2
DILUPBiCGStab:  Solving for k, Initial residual = 0.00798381, Final residual = 7.16055e-09, No Iterations 3

ExecutionTime = 3.73 s  ClockTime = 4 s

    Overall     = 0.00156618, 0.01
Time = 279

diagonal:  Solving for rho, Initial residual = 0, Final residual = 0, No Iterations 0

Execution time for mesh.update() = 0 s

DILUPBiCGStab:  Solving for Ux, Initial residual = 0.00625874, Final residual = 6.32075e-09, No Iterations 3
DILUPBiCGStab:  Solving for Uy, Initial residual = 0.00812287, Final residual = 7.85142e-09, No Iterations 3
DILUPBiCGStab:  Solving for O2, Initial residual = 0.0034178, Final residual = 4.3918e-09, No Iterations 3
DILUPBiCGStab:  Solving for H2O, Initial residual = 0.0034179, Final residual = 4.39185e-09, No Iterations 3
DILUPBiCGStab:  Solving for CH4, Initial residual = 0, Final residual = 0, No Iterations 0
DILUPBiCGStab:  Solving for CO2, Initial residual = 0.0034179, Final residual = 4.39186e-09, No Iterations 3
DILUPBiCGStab:  Solving for h, Initial residual = 0.00405901, Final residual = 4.52882e-09, No Iterations 3
min/max(T) = 299.566, 1044.98
GAMGPCG:  Solving for p_rgh, Initial residual = 0.0233785, Final residual = 5.76567e-07, No Iterations 4
diagonal:  Solving for rho, Initial residual = 0, Final residual = 0, No Iterations 0
time step continuity errors : sum local = 3.32243e-08, global = -3.81512e-09, cumulative = -2.60681e-07
GAMGPCG:  Solving for p_rgh, Initial residual = 0.00290011, Final residual = 9.00351e-07, No Iterations 3
diagonal:  Solving for rho, Initial residual = 0, Final residual = 0, No Iterations 0
time step continuity errors : sum local = 5.00961e-08, global = -2.97467e-10, cumulative = -2.60978e-07
DILUPBiCGStab:  Solving for omega, Initial residual = 0.000130275, Final residual = 2.01381e-09, No Iterations 2
DILUPBiCGStab:  Solving for k, Initial residual = 0.00800928, Final residual = 6.94579e-09, No Iterations 3

ExecutionTime = 3.85 s  ClockTime = 4 s

    Overall     = 0.00153653, 0.01
Time = 280

diagonal:  Solving for rho, Initial residual = 0, Final residual = 0, No Iterations 0

Execution time for mesh.update() = 0 s

DILUPBiCGStab:  Solving for Ux, Initial residual = 0.00671124, Final residual = 1.11484e-09, No Iterations 3
DILUPBiCGStab:  Solving for Uy, Initial residual = 0.00867514, Final residual = 3.67763e-09, No Iterations 3
GAMGPCG:  Solving for G, Initial residual = 0.196996, Final residual = 4.20802e-05, No Iterations 6
DILUPBiCGStab:  Solving for O2, Initial residual = 0.00362834, Final residual = 3.34169e-09, No Iterations 3
DILUPBiCGStab:  Solving for H2O, Initial residual = 0.00362603, Final residual = 3.33244e-09, No Iterations 3
DILUPBiCGStab:  Solving for CH4, Initial residual = 0, Final residual = 0, No Iterations 0
DILUPBiCGStab:  Solving for CO2, Initial residual = 0.00362603, Final residual = 3.33244e-09, No Iterations 3
DILUPBiCGStab:  Solving for h, Initial residual = 0.00436825, Final residual = 3.77705e-09, No Iterations 3
min/max(T) = 299.814, 1044.98
GAMGPCG:  Solving for p_rgh, Initial residual = 0.0247662, Final residual = 3.94161e-07, No Iterations 4
diagonal:  Solving for rho, Initial residual = 0, Final residual = 0, No Iterations 0
time step continuity errors : sum local = 2.24644e-08, global = -4.7503e-09, cumulative = -2.65728e-07
GAMGPCG:  Solving for p_rgh, Initial residual = 0.00296794, Final residual = 8.89906e-07, No Iterations 3
diagonal:  Solving for rho, Initial residual = 0, Final residual = 0, No Iterations 0
time step continuity errors : sum local = 4.95821e-08, global = 1.14213e-09, cumulative = -2.64586e-07
DILUPBiCGStab:  Solving for omega, Initial residual = 0.000302815, Final residual = 2.34859e-09, No Iterations 2
bounding omega, min: -24.4427 max: 15730.7 average: 301.24
DILUPBiCGStab:  Solving for k, Initial residual = 0.008054, Final residual = 8.94864e-10, No Iterations 3

ExecutionTime = 4.1 s  ClockTime = 4 s

    Overall     = 0.00188661, 0.01
Time = 281

diagonal:  Solving for rho, Initial residual = 0, Final residual = 0, No Iterations 0

Execution time for mesh.update() = 0 s

DILUPBiCGStab:  Solving for Ux, Initial residual = 0.00647824, Final residual = 9.75706e-09, No Iterations 3
DILUPBiCGStab:  Solving for Uy, Initial residual = 0.00847283, Final residual = 8.63872e-09, No Iterations 3
DILUPBiCGStab:  Solving for O2, Initial residual = 0.00353094, Final residual = 3.43959e-09, No Iterations 3
DILUPBiCGStab:  Solving for H2O, Initial residual = 0.00353093, Final residual = 3.43971e-09, No Iterations 3
DILUPBiCGStab:  Solving for CH4, Initial residual = 0, Final residual = 0, No Iterations 0
DILUPBiCGStab:  Solving for CO2, Initial residual = 0.00353093, Final residual = 3.43972e-09, No Iterations 3
DILUPBiCGStab:  Solving for h, Initial residual = 0.0042246, Final residual = 1.21267e-09, No Iterations 3
min/max(T) = 299.801, 1044.98
GAMGPCG:  Solving for p_rgh, Initial residual = 0.0258128, Final residual = 3.51378e-07, No Iterations 4
diagonal:  Solving for rho, Initial residual = 0, Final residual = 0, No Iterations 0
time step continuity errors : sum local = 1.99008e-08, global = 2.14501e-09, cumulative = -2.62441e-07
GAMGPCG:  Solving for p_rgh, Initial residual = 0.00362393, Final residual = 8.22218e-07, No Iterations 3
diagonal:  Solving for rho, Initial residual = 0, Final residual = 0, No Iterations 0
time step continuity errors : sum local = 4.56098e-08, global = -5.74374e-09, cumulative = -2.68185e-07
DILUPBiCGStab:  Solving for omega, Initial residual = 0.000180462, Final residual = 2.37426e-09, No Iterations 2
DILUPBiCGStab:  Solving for k, Initial residual = 0.00809255, Final residual = 8.38419e-09, No Iterations 3

ExecutionTime = 4.22 s  ClockTime = 4 s

    Overall     = 0.00137777, 0.01
Time = 282

diagonal:  Solving for rho, Initial residual = 0, Final residual = 0, No Iterations 0

Execution time for mesh.update() = 0 s

DILUPBiCGStab:  Solving for Ux, Initial residual = 0.00638898, Final residual = 7.69379e-09, No Iterations 3
DILUPBiCGStab:  Solving for Uy, Initial residual = 0.00820955, Final residual = 7.90445e-09, No Iterations 3
DILUPBiCGStab:  Solving for O2, Initial residual = 0.00344445, Final residual = 2.90644e-09, No Iterations 3
DILUPBiCGStab:  Solving for H2O, Initial residual = 0.00344445, Final residual = 2.90639e-09, No Iterations 3
DILUPBiCGStab:  Solving for CH4, Initial residual = 0, Final residual = 0, No Iterations 0
DILUPBiCGStab:  Solving for CO2, Initial residual = 0.00344445, Final residual = 2.90639e-09, No Iterations 3
DILUPBiCGStab:  Solving for h, Initial residual = 0.00410021, Final residual = 3.08847e-09, No Iterations 3
min/max(T) = 299.839, 1044.98
GAMGPCG:  Solving for p_rgh, Initial residual = 0.0241943, Final residual = 5.44826e-07, No Iterations 4
diagonal:  Solving for rho, Initial residual = 0, Final residual = 0, No Iterations 0
time step continuity errors : sum local = 3.09724e-08, global = -1.06206e-09, cumulative = -2.69247e-07
GAMGPCG:  Solving for p_rgh, Initial residual = 0.00295754, Final residual = 7.329e-07, No Iterations 3
diagonal:  Solving for rho, Initial residual = 0, Final residual = 0, No Iterations 0
time step continuity errors : sum local = 4.01158e-08, global = 2.48615e-09, cumulative = -2.66761e-07
DILUPBiCGStab:  Solving for omega, Initial residual = 0.00013968, Final residual = 2.12424e-09, No Iterations 2
DILUPBiCGStab:  Solving for k, Initial residual = 0.00812633, Final residual = 7.94195e-09, No Iterations 3

ExecutionTime = 4.33 s  ClockTime = 4 s

    Overall     = 0.0014787, 0.01
Time = 283

diagonal:  Solving for rho, Initial residual = 0, Final residual = 0, No Iterations 0

Execution time for mesh.update() = 0 s

DILUPBiCGStab:  Solving for Ux, Initial residual = 0.00634345, Final residual = 7.05241e-09, No Iterations 3
DILUPBiCGStab:  Solving for Uy, Initial residual = 0.00810737, Final residual = 9.40271e-09, No Iterations 3
DILUPBiCGStab:  Solving for O2, Initial residual = 0.00344112, Final residual = 2.87895e-09, No Iterations 3
DILUPBiCGStab:  Solving for H2O, Initial residual = 0.00344111, Final residual = 2.87892e-09, No Iterations 3
DILUPBiCGStab:  Solving for CH4, Initial residual = 0, Final residual = 0, No Iterations 0
DILUPBiCGStab:  Solving for CO2, Initial residual = 0.00344111, Final residual = 2.87892e-09, No Iterations 3
DILUPBiCGStab:  Solving for h, Initial residual = 0.00409384, Final residual = 3.03172e-09, No Iterations 3
min/max(T) = 299.837, 1044.98
GAMGPCG:  Solving for p_rgh, Initial residual = 0.023126, Final residual = 6.18172e-07, No Iterations 4
diagonal:  Solving for rho, Initial residual = 0, Final residual = 0, No Iterations 0
time step continuity errors : sum local = 3.53183e-08, global = -4.94348e-09, cumulative = -2.71704e-07
GAMGPCG:  Solving for p_rgh, Initial residual = 0.00287641, Final residual = 7.36967e-07, No Iterations 3
diagonal:  Solving for rho, Initial residual = 0, Final residual = 0, No Iterations 0
time step continuity errors : sum local = 4.07698e-08, global = 4.39543e-09, cumulative = -2.67309e-07
DILUPBiCGStab:  Solving for omega, Initial residual = 0.000135701, Final residual = 1.73274e-09, No Iterations 2
DILUPBiCGStab:  Solving for k, Initial residual = 0.00816011, Final residual = 5.73484e-09, No Iterations 3

ExecutionTime = 4.44 s  ClockTime = 5 s

    Overall     = 0.00145153, 0.01
Time = 284

diagonal:  Solving for rho, Initial residual = 0, Final residual = 0, No Iterations 0

Execution time for mesh.update() = 0 s

DILUPBiCGStab:  Solving for Ux, Initial residual = 0.00634358, Final residual = 6.54768e-09, No Iterations 3
DILUPBiCGStab:  Solving for Uy, Initial residual = 0.00804337, Final residual = 8.47419e-09, No Iterations 3
DILUPBiCGStab:  Solving for O2, Initial residual = 0.00343586, Final residual = 2.88244e-09, No Iterations 3
DILUPBiCGStab:  Solving for H2O, Initial residual = 0.00343585, Final residual = 2.88243e-09, No Iterations 3
DILUPBiCGStab:  Solving for CH4, Initial residual = 0, Final residual = 0, No Iterations 0
DILUPBiCGStab:  Solving for CO2, Initial residual = 0.00343585, Final residual = 2.88243e-09, No Iterations 3
DILUPBiCGStab:  Solving for h, Initial residual = 0.00408761, Final residual = 2.95709e-09, No Iterations 3
min/max(T) = 299.835, 1044.98
GAMGPCG:  Solving for p_rgh, Initial residual = 0.0225757, Final residual = 4.88507e-07, No Iterations 4
diagonal:  Solving for rho, Initial residual = 0, Final residual = 0, No Iterations 0
time step continuity errors : sum local = 2.74615e-08, global = -1.06126e-09, cumulative = -2.6837e-07
GAMGPCG:  Solving for p_rgh, Initial residual = 0.00289872, Final residual = 6.54469e-07, No Iterations 3
diagonal:  Solving for rho, Initial residual = 0, Final residual = 0, No Iterations 0
time step continuity errors : sum local = 3.60946e-08, global = 5.41239e-09, cumulative = -2.62958e-07
DILUPBiCGStab:  Solving for omega, Initial residual = 0.000133832, Final residual = 1.9196e-09, No Iterations 2
DILUPBiCGStab:  Solving for k, Initial residual = 0.00818205, Final residual = 4.41182e-09, No Iterations 3

ExecutionTime = 4.56 s  ClockTime = 5 s

    Overall     = 0.00144115, 0.01
Time = 285

diagonal:  Solving for rho, Initial residual = 0, Final residual = 0, No Iterations 0

Execution time for mesh.update() = 0 s

DILUPBiCGStab:  Solving for Ux, Initial residual = 0.00635579, Final residual = 6.26706e-09, No Iterations 3
DILUPBiCGStab:  Solving for Uy, Initial residual = 0.00799024, Final residual = 9.52089e-10, No Iterations 3
DILUPBiCGStab:  Solving for O2, Initial residual = 0.00343527, Final residual = 2.71553e-09, No Iterations 3
DILUPBiCGStab:  Solving for H2O, Initial residual = 0.00343531, Final residual = 2.71552e-09, No Iterations 3
DILUPBiCGStab:  Solving for CH4, Initial residual = 0, Final residual = 0, No Iterations 0
DILUPBiCGStab:  Solving for CO2, Initial residual = 0.00343531, Final residual = 2.71552e-09, No Iterations 3
DILUPBiCGStab:  Solving for h, Initial residual = 0.00408462, Final residual = 2.81186e-09, No Iterations 3
min/max(T) = 299.634, 1044.98
GAMGPCG:  Solving for p_rgh, Initial residual = 0.0223162, Final residual = 6.03421e-07, No Iterations 4
diagonal:  Solving for rho, Initial residual = 0, Final residual = 0, No Iterations 0
time step continuity errors : sum local = 3.46304e-08, global = -4.0387e-09, cumulative = -2.66997e-07
GAMGPCG:  Solving for p_rgh, Initial residual = 0.00289811, Final residual = 6.7092e-07, No Iterations 3
diagonal:  Solving for rho, Initial residual = 0, Final residual = 0, No Iterations 0
time step continuity errors : sum local = 3.71701e-08, global = 7.78419e-09, cumulative = -2.59212e-07
DILUPBiCGStab:  Solving for omega, Initial residual = 0.00013211, Final residual = 1.72934e-09, No Iterations 2
DILUPBiCGStab:  Solving for k, Initial residual = 0.00820672, Final residual = 4.23e-09, No Iterations 3

ExecutionTime = 4.67 s  ClockTime = 5 s

    Overall     = 0.00143675, 0.01
Time = 286

diagonal:  Solving for rho, Initial residual = 0, Final residual = 0, No Iterations 0

Execution time for mesh.update() = 0 s

DILUPBiCGStab:  Solving for Ux, Initial residual = 0.00635846, Final residual = 5.85598e-09, No Iterations 3
DILUPBiCGStab:  Solving for Uy, Initial residual = 0.00792634, Final residual = 8.44861e-09, No Iterations 3
DILUPBiCGStab:  Solving for O2, Initial residual = 0.00343417, Final residual = 2.8383e-09, No Iterations 3
DILUPBiCGStab:  Solving for H2O, Initial residual = 0.00343446, Final residual = 2.83826e-09, No Iterations 3
DILUPBiCGStab:  Solving for CH4, Initial residual = 0, Final residual = 0, No Iterations 0
DILUPBiCGStab:  Solving for CO2, Initial residual = 0.00343446, Final residual = 2.83826e-09, No Iterations 3
DILUPBiCGStab:  Solving for h, Initial residual = 0.00408796, Final residual = 2.99228e-09, No Iterations 3
min/max(T) = 299.494, 1044.98
GAMGPCG:  Solving for p_rgh, Initial residual = 0.0222606, Final residual = 5.06187e-07, No Iterations 4
diagonal:  Solving for rho, Initial residual = 0, Final residual = 0, No Iterations 0
time step continuity errors : sum local = 2.88532e-08, global = -2.51982e-09, cumulative = -2.61732e-07
GAMGPCG:  Solving for p_rgh, Initial residual = 0.00287291, Final residual = 7.94318e-07, No Iterations 3
diagonal:  Solving for rho, Initial residual = 0, Final residual = 0, No Iterations 0
time step continuity errors : sum local = 4.37885e-08, global = 9.25694e-09, cumulative = -2.52475e-07
DILUPBiCGStab:  Solving for omega, Initial residual = 0.000130847, Final residual = 1.73505e-09, No Iterations 2
DILUPBiCGStab:  Solving for k, Initial residual = 0.00821499, Final residual = 4.11627e-09, No Iterations 3

ExecutionTime = 4.78 s  ClockTime = 5 s

    Overall     = 0.00143427, 0.01
Time = 287

diagonal:  Solving for rho, Initial residual = 0, Final residual = 0, No Iterations 0

Execution time for mesh.update() = 0 s

DILUPBiCGStab:  Solving for Ux, Initial residual = 0.00636891, Final residual = 5.85632e-09, No Iterations 3
DILUPBiCGStab:  Solving for Uy, Initial residual = 0.00789852, Final residual = 6.86749e-09, No Iterations 3
DILUPBiCGStab:  Solving for O2, Initial residual = 0.00343408, Final residual = 2.95617e-09, No Iterations 3
DILUPBiCGStab:  Solving for H2O, Initial residual = 0.00343446, Final residual = 2.95611e-09, No Iterations 3
DILUPBiCGStab:  Solving for CH4, Initial residual = 0, Final residual = 0, No Iterations 0
DILUPBiCGStab:  Solving for CO2, Initial residual = 0.00343446, Final residual = 2.95611e-09, No Iterations 3
DILUPBiCGStab:  Solving for h, Initial residual = 0.00409288, Final residual = 3.14728e-09, No Iterations 3
min/max(T) = 299.434, 1044.98
GAMGPCG:  Solving for p_rgh, Initial residual = 0.0219503, Final residual = 4.55481e-07, No Iterations 4
diagonal:  Solving for rho, Initial residual = 0, Final residual = 0, No Iterations 0
time step continuity errors : sum local = 2.59841e-08, global = -3.32161e-09, cumulative = -2.55797e-07
GAMGPCG:  Solving for p_rgh, Initial residual = 0.0028342, Final residual = 8.75306e-07, No Iterations 3
diagonal:  Solving for rho, Initial residual = 0, Final residual = 0, No Iterations 0
time step continuity errors : sum local = 4.75889e-08, global = 6.19196e-09, cumulative = -2.49605e-07
DILUPBiCGStab:  Solving for omega, Initial residual = 0.000129539, Final residual = 1.76517e-09, No Iterations 2
DILUPBiCGStab:  Solving for k, Initial residual = 0.00823775, Final residual = 4.25615e-09, No Iterations 3

ExecutionTime = 4.89 s  ClockTime = 5 s

    Overall     = 0.00143065, 0.01
Time = 288

diagonal:  Solving for rho, Initial residual = 0, Final residual = 0, No Iterations 0

Execution time for mesh.update() = 0 s

DILUPBiCGStab:  Solving for Ux, Initial residual = 0.00638102, Final residual = 5.60081e-09, No Iterations 3
DILUPBiCGStab:  Solving for Uy, Initial residual = 0.00784756, Final residual = 6.01471e-09, No Iterations 3
DILUPBiCGStab:  Solving for O2, Initial residual = 0.00344126, Final residual = 3.05114e-09, No Iterations 3
DILUPBiCGStab:  Solving for H2O, Initial residual = 0.00344175, Final residual = 3.05102e-09, No Iterations 3
DILUPBiCGStab:  Solving for CH4, Initial residual = 0, Final residual = 0, No Iterations 0
DILUPBiCGStab:  Solving for CO2, Initial residual = 0.00344175, Final residual = 3.05102e-09, No Iterations 3
DILUPBiCGStab:  Solving for h, Initial residual = 0.00410198, Final residual = 3.25591e-09, No Iterations 3
min/max(T) = 299.393, 1044.98
GAMGPCG:  Solving for p_rgh, Initial residual = 0.0219659, Final residual = 5.32683e-07, No Iterations 4
diagonal:  Solving for rho, Initial residual = 0, Final residual = 0, No Iterations 0
time step continuity errors : sum local = 3.04023e-08, global = 2.33622e-10, cumulative = -2.49371e-07
GAMGPCG:  Solving for p_rgh, Initial residual = 0.00279892, Final residual = 8.91894e-07, No Iterations 3
diagonal:  Solving for rho, Initial residual = 0, Final residual = 0, No Iterations 0
time step continuity errors : sum local = 4.84951e-08, global = 9.34692e-09, cumulative = -2.40024e-07
DILUPBiCGStab:  Solving for omega, Initial residual = 0.000128293, Final residual = 1.74156e-09, No Iterations 2
DILUPBiCGStab:  Solving for k, Initial residual = 0.00824932, Final residual = 4.30958e-09, No Iterations 3

ExecutionTime = 5.01 s  ClockTime = 5 s

    Overall     = 0.00142875, 0.01
Time = 289

diagonal:  Solving for rho, Initial residual = 0, Final residual = 0, No Iterations 0

Execution time for mesh.update() = 0 s

DILUPBiCGStab:  Solving for Ux, Initial residual = 0.00638904, Final residual = 5.27122e-09, No Iterations 3
DILUPBiCGStab:  Solving for Uy, Initial residual = 0.00781263, Final residual = 5.89701e-09, No Iterations 3
DILUPBiCGStab:  Solving for O2, Initial residual = 0.00343839, Final residual = 3.02779e-09, No Iterations 3
DILUPBiCGStab:  Solving for H2O, Initial residual = 0.00343882, Final residual = 3.02768e-09, No Iterations 3
DILUPBiCGStab:  Solving for CH4, Initial residual = 0, Final residual = 0, No Iterations 0
DILUPBiCGStab:  Solving for CO2, Initial residual = 0.00343882, Final residual = 3.02769e-09, No Iterations 3
DILUPBiCGStab:  Solving for h, Initial residual = 0.00410485, Final residual = 3.17263e-09, No Iterations 3
min/max(T) = 299.374, 1044.98
GAMGPCG:  Solving for p_rgh, Initial residual = 0.0219525, Final residual = 5.77597e-07, No Iterations 4
diagonal:  Solving for rho, Initial residual = 0, Final residual = 0, No Iterations 0
time step continuity errors : sum local = 3.32734e-08, global = -1.79662e-09, cumulative = -2.41821e-07
GAMGPCG:  Solving for p_rgh, Initial residual = 0.0027475, Final residual = 1.40142e-07, No Iterations 4
diagonal:  Solving for rho, Initial residual = 0, Final residual = 0, No Iterations 0
time step continuity errors : sum local = 7.70617e-09, global = 6.31718e-10, cumulative = -2.41189e-07
DILUPBiCGStab:  Solving for omega, Initial residual = 0.000127908, Final residual = 1.74366e-09, No Iterations 2
DILUPBiCGStab:  Solving for k, Initial residual = 0.00824702, Final residual = 4.60259e-09, No Iterations 3

ExecutionTime = 5.12 s  ClockTime = 5 s

    Overall     = 0.00142503, 0.01
Time = 290

diagonal:  Solving for rho, Initial residual = 0, Final residual = 0, No Iterations 0

Execution time for mesh.update() = 0 s

DILUPBiCGStab:  Solving for Ux, Initial residual = 0.00640848, Final residual = 4.90301e-09, No Iterations 3
DILUPBiCGStab:  Solving for Uy, Initial residual = 0.00777273, Final residual = 5.51507e-09, No Iterations 3
GAMGPCG:  Solving for G, Initial residual = 0.221724, Final residual = 4.10111e-05, No Iterations 5
DILUPBiCGStab:  Solving for O2, Initial residual = 0.00344207, Final residual = 2.69795e-09, No Iterations 3
DILUPBiCGStab:  Solving for H2O, Initial residual = 0.00344257, Final residual = 2.69784e-09, No Iterations 3
DILUPBiCGStab:  Solving for CH4, Initial residual = 0, Final residual = 0, No Iterations 0
DILUPBiCGStab:  Solving for CO2, Initial residual = 0.00344257, Final residual = 2.69784e-09, No Iterations 3
DILUPBiCGStab:  Solving for h, Initial residual = 0.00411296, Final residual = 2.77716e-09, No Iterations 3
min/max(T) = 299.363, 1044.98
GAMGPCG:  Solving for p_rgh, Initial residual = 0.0214817, Final residual = 4.68688e-07, No Iterations 4
diagonal:  Solving for rho, Initial residual = 0, Final residual = 0, No Iterations 0
time step continuity errors : sum local = 2.63643e-08, global = -1.68005e-09, cumulative = -2.42869e-07
GAMGPCG:  Solving for p_rgh, Initial residual = 0.00277951, Final residual = 1.56928e-07, No Iterations 4
diagonal:  Solving for rho, Initial residual = 0, Final residual = 0, No Iterations 0
time step continuity errors : sum local = 8.57185e-09, global = 6.08365e-10, cumulative = -2.42261e-07
DILUPBiCGStab:  Solving for omega, Initial residual = 0.000127572, Final residual = 1.6688e-09, No Iterations 2
DILUPBiCGStab:  Solving for k, Initial residual = 0.00826366, Final residual = 4.41985e-09, No Iterations 3

ExecutionTime = 5.37 s  ClockTime = 5 s

    Overall     = 0.00142159, 0.01
Time = 291

diagonal:  Solving for rho, Initial residual = 0, Final residual = 0, No Iterations 0

Execution time for mesh.update() = 0 s

DILUPBiCGStab:  Solving for Ux, Initial residual = 0.00642093, Final residual = 4.35706e-09, No Iterations 3
DILUPBiCGStab:  Solving for Uy, Initial residual = 0.00774463, Final residual = 5.38593e-09, No Iterations 3
DILUPBiCGStab:  Solving for O2, Initial residual = 0.00344692, Final residual = 2.45593e-09, No Iterations 3
DILUPBiCGStab:  Solving for H2O, Initial residual = 0.00344735, Final residual = 2.45588e-09, No Iterations 3
DILUPBiCGStab:  Solving for CH4, Initial residual = 0, Final residual = 0, No Iterations 0
DILUPBiCGStab:  Solving for CO2, Initial residual = 0.00344735, Final residual = 2.45588e-09, No Iterations 3
DILUPBiCGStab:  Solving for h, Initial residual = 0.00411765, Final residual = 2.54724e-09, No Iterations 3
min/max(T) = 299.361, 1044.98
GAMGPCG:  Solving for p_rgh, Initial residual = 0.0213519, Final residual = 5.11039e-07, No Iterations 4
diagonal:  Solving for rho, Initial residual = 0, Final residual = 0, No Iterations 0
time step continuity errors : sum local = 2.89242e-08, global = -3.2425e-09, cumulative = -2.45503e-07
GAMGPCG:  Solving for p_rgh, Initial residual = 0.00278895, Final residual = 2.02565e-07, No Iterations 4
diagonal:  Solving for rho, Initial residual = 0, Final residual = 0, No Iterations 0
time step continuity errors : sum local = 1.09452e-08, global = 1.13506e-09, cumulative = -2.44368e-07
DILUPBiCGStab:  Solving for omega, Initial residual = 0.000127592, Final residual = 1.64858e-09, No Iterations 2
DILUPBiCGStab:  Solving for k, Initial residual = 0.00827745, Final residual = 5.54066e-09, No Iterations 3

ExecutionTime = 5.49 s  ClockTime = 6 s

    Overall     = 0.00141652, 0.01
Time = 292

diagonal:  Solving for rho, Initial residual = 0, Final residual = 0, No Iterations 0

Execution time for mesh.update() = 0 s

DILUPBiCGStab:  Solving for Ux, Initial residual = 0.00640902, Final residual = 3.90598e-09, No Iterations 3
DILUPBiCGStab:  Solving for Uy, Initial residual = 0.00771038, Final residual = 5.37374e-09, No Iterations 3
DILUPBiCGStab:  Solving for O2, Initial residual = 0.00344845, Final residual = 2.25012e-09, No Iterations 3
DILUPBiCGStab:  Solving for H2O, Initial residual = 0.00344901, Final residual = 2.25009e-09, No Iterations 3
DILUPBiCGStab:  Solving for CH4, Initial residual = 0, Final residual = 0, No Iterations 0
DILUPBiCGStab:  Solving for CO2, Initial residual = 0.00344901, Final residual = 2.25009e-09, No Iterations 3
DILUPBiCGStab:  Solving for h, Initial residual = 0.00412672, Final residual = 2.29044e-09, No Iterations 3
min/max(T) = 299.362, 1044.98
GAMGPCG:  Solving for p_rgh, Initial residual = 0.0216925, Final residual = 4.85299e-07, No Iterations 4
diagonal:  Solving for rho, Initial residual = 0, Final residual = 0, No Iterations 0
time step continuity errors : sum local = 2.68742e-08, global = -3.48127e-09, cumulative = -2.4785e-07
GAMGPCG:  Solving for p_rgh, Initial residual = 0.0027619, Final residual = 2.36873e-07, No Iterations 4
diagonal:  Solving for rho, Initial residual = 0, Final residual = 0, No Iterations 0
time step continuity errors : sum local = 1.26768e-08, global = 1.19025e-09, cumulative = -2.46659e-07
DILUPBiCGStab:  Solving for omega, Initial residual = 0.000128033, Final residual = 1.62293e-09, No Iterations 2
DILUPBiCGStab:  Solving for k, Initial residual = 0.00829418, Final residual = 4.37357e-09, No Iterations 3

ExecutionTime = 5.61 s  ClockTime = 6 s

[...]

Execution time for mesh.update() = 0 s

DILUPBiCGStab:  Solving for Ux, Initial residual = 0.00661181, Final residual = 6.32002e-09, No Iterations 3
DILUPBiCGStab:  Solving for Uy, Initial residual = 0.0052657, Final residual = 5.54325e-09, No Iterations 3
GAMGPCG:  Solving for G, Initial residual = 0.261432, Final residual = 4.25145e-05, No Iterations 6
DILUPBiCGStab:  Solving for O2, Initial residual = 0.0022176, Final residual = 4.42789e-09, No Iterations 3
DILUPBiCGStab:  Solving for H2O, Initial residual = 0.0022176, Final residual = 4.42803e-09, No Iterations 3
DILUPBiCGStab:  Solving for CH4, Initial residual = 0, Final residual = 0, No Iterations 0
DILUPBiCGStab:  Solving for CO2, Initial residual = 0.0022176, Final residual = 4.42803e-09, No Iterations 3
DILUPBiCGStab:  Solving for h, Initial residual = 0.00256067, Final residual = 3.44323e-09, No Iterations 3
min/max(T) = 299.909, 1044.98
GAMGPCG:  Solving for p_rgh, Initial residual = 0.0243322, Final residual = 5.86516e-07, No Iterations 4
diagonal:  Solving for rho, Initial residual = 0, Final residual = 0, No Iterations 0
time step continuity errors : sum local = 2.27117e-08, global = 6.7424e-10, cumulative = 1.47317e-06
GAMGPCG:  Solving for p_rgh, Initial residual = 0.00438145, Final residual = 2.88659e-07, No Iterations 4
diagonal:  Solving for rho, Initial residual = 0, Final residual = 0, No Iterations 0
time step continuity errors : sum local = 1.10577e-08, global = 2.0038e-09, cumulative = 1.47517e-06
DILUPBiCGStab:  Solving for omega, Initial residual = 0.00010219, Final residual = 1.59592e-09, No Iterations 2
DILUPBiCGStab:  Solving for k, Initial residual = 0.00436838, Final residual = 2.00661e-09, No Iterations 3

ExecutionTime = 291.61 s  ClockTime = 292 s

    Overall     = 0.0012945, 0.01
Time = 2491

diagonal:  Solving for rho, Initial residual = 0, Final residual = 0, No Iterations 0

Execution time for mesh.update() = 0 s

DILUPBiCGStab:  Solving for Ux, Initial residual = 0.00658306, Final residual = 6.71037e-09, No Iterations 3
DILUPBiCGStab:  Solving for Uy, Initial residual = 0.00525508, Final residual = 5.56424e-09, No Iterations 3
DILUPBiCGStab:  Solving for O2, Initial residual = 0.00219387, Final residual = 5.52143e-09, No Iterations 3
DILUPBiCGStab:  Solving for H2O, Initial residual = 0.00219379, Final residual = 5.5214e-09, No Iterations 3
DILUPBiCGStab:  Solving for CH4, Initial residual = 0, Final residual = 0, No Iterations 0
DILUPBiCGStab:  Solving for CO2, Initial residual = 0.00219379, Final residual = 5.5214e-09, No Iterations 3
DILUPBiCGStab:  Solving for h, Initial residual = 0.00253131, Final residual = 3.47545e-09, No Iterations 3
min/max(T) = 299.982, 1044.98
GAMGPCG:  Solving for p_rgh, Initial residual = 0.024548, Final residual = 7.16882e-07, No Iterations 4
diagonal:  Solving for rho, Initial residual = 0, Final residual = 0, No Iterations 0
time step continuity errors : sum local = 2.82479e-08, global = -6.81785e-09, cumulative = 1.46835e-06
GAMGPCG:  Solving for p_rgh, Initial residual = 0.00440627, Final residual = 3.05482e-07, No Iterations 4
diagonal:  Solving for rho, Initial residual = 0, Final residual = 0, No Iterations 0
time step continuity errors : sum local = 1.16124e-08, global = 2.10667e-09, cumulative = 1.47046e-06
DILUPBiCGStab:  Solving for omega, Initial residual = 0.000101142, Final residual = 1.5878e-09, No Iterations 2
DILUPBiCGStab:  Solving for k, Initial residual = 0.0043361, Final residual = 2.10226e-09, No Iterations 3

ExecutionTime = 291.72 s  ClockTime = 292 s

    Overall     = 0.0012957, 0.01
Time = 2492

diagonal:  Solving for rho, Initial residual = 0, Final residual = 0, No Iterations 0

Execution time for mesh.update() = 0 s

DILUPBiCGStab:  Solving for Ux, Initial residual = 0.00651133, Final residual = 7.33385e-09, No Iterations 3
DILUPBiCGStab:  Solving for Uy, Initial residual = 0.00523958, Final residual = 5.38918e-09, No Iterations 3
DILUPBiCGStab:  Solving for O2, Initial residual = 0.00217721, Final residual = 2.1547e-09, No Iterations 3
DILUPBiCGStab:  Solving for H2O, Initial residual = 0.00217721, Final residual = 2.15469e-09, No Iterations 3
DILUPBiCGStab:  Solving for CH4, Initial residual = 0, Final residual = 0, No Iterations 0
DILUPBiCGStab:  Solving for CO2, Initial residual = 0.00217721, Final residual = 2.15469e-09, No Iterations 3
DILUPBiCGStab:  Solving for h, Initial residual = 0.00251444, Final residual = 2.24667e-09, No Iterations 3
min/max(T) = 299.99, 1044.98
GAMGPCG:  Solving for p_rgh, Initial residual = 0.0248552, Final residual = 9.22873e-07, No Iterations 4
diagonal:  Solving for rho, Initial residual = 0, Final residual = 0, No Iterations 0
time step continuity errors : sum local = 3.61912e-08, global = -7.47011e-09, cumulative = 1.46299e-06
GAMGPCG:  Solving for p_rgh, Initial residual = 0.0044275, Final residual = 3.16322e-07, No Iterations 4
diagonal:  Solving for rho, Initial residual = 0, Final residual = 0, No Iterations 0
time step continuity errors : sum local = 1.20085e-08, global = 2.47351e-09, cumulative = 1.46546e-06
DILUPBiCGStab:  Solving for omega, Initial residual = 0.000100733, Final residual = 1.4815e-09, No Iterations 2
DILUPBiCGStab:  Solving for k, Initial residual = 0.00430056, Final residual = 2.05e-09, No Iterations 3

ExecutionTime = 291.84 s  ClockTime = 292 s

    Overall     = 0.001292, 0.01
Time = 2493

diagonal:  Solving for rho, Initial residual = 0, Final residual = 0, No Iterations 0

Execution time for mesh.update() = 0 s

DILUPBiCGStab:  Solving for Ux, Initial residual = 0.00647792, Final residual = 7.46777e-09, No Iterations 3
DILUPBiCGStab:  Solving for Uy, Initial residual = 0.0052191, Final residual = 5.1053e-09, No Iterations 3
DILUPBiCGStab:  Solving for O2, Initial residual = 0.00215459, Final residual = 1.93158e-09, No Iterations 3
DILUPBiCGStab:  Solving for H2O, Initial residual = 0.00215459, Final residual = 1.93158e-09, No Iterations 3
DILUPBiCGStab:  Solving for CH4, Initial residual = 0, Final residual = 0, No Iterations 0
DILUPBiCGStab:  Solving for CO2, Initial residual = 0.00215459, Final residual = 1.93158e-09, No Iterations 3
DILUPBiCGStab:  Solving for h, Initial residual = 0.0024863, Final residual = 1.92143e-09, No Iterations 3
min/max(T) = 299.996, 1044.98
GAMGPCG:  Solving for p_rgh, Initial residual = 0.0252322, Final residual = 9.62746e-07, No Iterations 4
diagonal:  Solving for rho, Initial residual = 0, Final residual = 0, No Iterations 0
time step continuity errors : sum local = 3.72788e-08, global = -6.76818e-09, cumulative = 1.4587e-06
GAMGPCG:  Solving for p_rgh, Initial residual = 0.00441371, Final residual = 3.1393e-07, No Iterations 4
diagonal:  Solving for rho, Initial residual = 0, Final residual = 0, No Iterations 0
time step continuity errors : sum local = 1.18007e-08, global = 2.28252e-09, cumulative = 1.46098e-06
DILUPBiCGStab:  Solving for omega, Initial residual = 0.00010083, Final residual = 1.25393e-09, No Iterations 2
DILUPBiCGStab:  Solving for k, Initial residual = 0.00426135, Final residual = 1.9085e-09, No Iterations 3

ExecutionTime = 291.95 s  ClockTime = 292 s

    Overall     = 0.00129456, 0.01
Time = 2494

diagonal:  Solving for rho, Initial residual = 0, Final residual = 0, No Iterations 0

Execution time for mesh.update() = 0 s

DILUPBiCGStab:  Solving for Ux, Initial residual = 0.00642283, Final residual = 6.97433e-09, No Iterations 3
DILUPBiCGStab:  Solving for Uy, Initial residual = 0.00523518, Final residual = 5.23029e-09, No Iterations 3
DILUPBiCGStab:  Solving for O2, Initial residual = 0.00213863, Final residual = 2.06907e-09, No Iterations 3
DILUPBiCGStab:  Solving for H2O, Initial residual = 0.00213863, Final residual = 2.06906e-09, No Iterations 3
DILUPBiCGStab:  Solving for CH4, Initial residual = 0, Final residual = 0, No Iterations 0
DILUPBiCGStab:  Solving for CO2, Initial residual = 0.00213863, Final residual = 2.06906e-09, No Iterations 3
DILUPBiCGStab:  Solving for h, Initial residual = 0.00247205, Final residual = 1.95144e-09, No Iterations 3
min/max(T) = 300, 1044.98
GAMGPCG:  Solving for p_rgh, Initial residual = 0.0244974, Final residual = 9.63107e-07, No Iterations 4
diagonal:  Solving for rho, Initial residual = 0, Final residual = 0, No Iterations 0
time step continuity errors : sum local = 3.68055e-08, global = -6.5042e-09, cumulative = 1.45447e-06
GAMGPCG:  Solving for p_rgh, Initial residual = 0.00437047, Final residual = 3.22533e-07, No Iterations 4
diagonal:  Solving for rho, Initial residual = 0, Final residual = 0, No Iterations 0
time step continuity errors : sum local = 1.2037e-08, global = 2.18227e-09, cumulative = 1.45666e-06
DILUPBiCGStab:  Solving for omega, Initial residual = 0.000100597, Final residual = 1.19651e-09, No Iterations 2
DILUPBiCGStab:  Solving for k, Initial residual = 0.00424335, Final residual = 2.05782e-09, No Iterations 3

ExecutionTime = 292.07 s  ClockTime = 292 s

    Overall     = 0.00129092, 0.01
Time = 2495

diagonal:  Solving for rho, Initial residual = 0, Final residual = 0, No Iterations 0

Execution time for mesh.update() = 0 s

DILUPBiCGStab:  Solving for Ux, Initial residual = 0.00639757, Final residual = 5.48915e-09, No Iterations 3
DILUPBiCGStab:  Solving for Uy, Initial residual = 0.00518403, Final residual = 5.63182e-09, No Iterations 3
DILUPBiCGStab:  Solving for O2, Initial residual = 0.0021174, Final residual = 2.24276e-09, No Iterations 3
DILUPBiCGStab:  Solving for H2O, Initial residual = 0.00211739, Final residual = 2.24275e-09, No Iterations 3
DILUPBiCGStab:  Solving for CH4, Initial residual = 0, Final residual = 0, No Iterations 0
DILUPBiCGStab:  Solving for CO2, Initial residual = 0.00211739, Final residual = 2.24275e-09, No Iterations 3
DILUPBiCGStab:  Solving for h, Initial residual = 0.00244399, Final residual = 2.35705e-09, No Iterations 3
min/max(T) = 300, 1044.98
GAMGPCG:  Solving for p_rgh, Initial residual = 0.0243369, Final residual = 1.66963e-07, No Iterations 5
diagonal:  Solving for rho, Initial residual = 0, Final residual = 0, No Iterations 0
time step continuity errors : sum local = 6.46618e-09, global = -4.25588e-10, cumulative = 1.45623e-06
GAMGPCG:  Solving for p_rgh, Initial residual = 0.00426661, Final residual = 3.23241e-07, No Iterations 4
diagonal:  Solving for rho, Initial residual = 0, Final residual = 0, No Iterations 0
time step continuity errors : sum local = 1.19367e-08, global = 1.47148e-09, cumulative = 1.4577e-06
DILUPBiCGStab:  Solving for omega, Initial residual = 0.000101096, Final residual = 1.17474e-09, No Iterations 2
DILUPBiCGStab:  Solving for k, Initial residual = 0.00429088, Final residual = 9.80982e-09, No Iterations 3

ExecutionTime = 292.19 s  ClockTime = 292 s

    Overall     = 0.00129415, 0.01
Time = 2496

diagonal:  Solving for rho, Initial residual = 0, Final residual = 0, No Iterations 0

Execution time for mesh.update() = 0 s

DILUPBiCGStab:  Solving for Ux, Initial residual = 0.00635138, Final residual = 5.30999e-09, No Iterations 3
DILUPBiCGStab:  Solving for Uy, Initial residual = 0.00520357, Final residual = 6.11792e-09, No Iterations 3
DILUPBiCGStab:  Solving for O2, Initial residual = 0.0021067, Final residual = 2.23916e-09, No Iterations 3
DILUPBiCGStab:  Solving for H2O, Initial residual = 0.0021067, Final residual = 2.23915e-09, No Iterations 3
DILUPBiCGStab:  Solving for CH4, Initial residual = 0, Final residual = 0, No Iterations 0
DILUPBiCGStab:  Solving for CO2, Initial residual = 0.0021067, Final residual = 2.23915e-09, No Iterations 3
DILUPBiCGStab:  Solving for h, Initial residual = 0.00243305, Final residual = 2.23753e-09, No Iterations 3
min/max(T) = 300, 1044.98
GAMGPCG:  Solving for p_rgh, Initial residual = 0.0239047, Final residual = 9.74033e-07, No Iterations 4
diagonal:  Solving for rho, Initial residual = 0, Final residual = 0, No Iterations 0
time step continuity errors : sum local = 3.68645e-08, global = -4.75475e-09, cumulative = 1.45295e-06
GAMGPCG:  Solving for p_rgh, Initial residual = 0.00419481, Final residual = 3.06484e-07, No Iterations 4
diagonal:  Solving for rho, Initial residual = 0, Final residual = 0, No Iterations 0
time step continuity errors : sum local = 1.1262e-08, global = 6.49339e-10, cumulative = 1.4536e-06
DILUPBiCGStab:  Solving for omega, Initial residual = 9.99608e-05, Final residual = 1.48544e-09, No Iterations 2
DILUPBiCGStab:  Solving for k, Initial residual = 0.00426753, Final residual = 3.64045e-09, No Iterations 3

ExecutionTime = 292.3 s  ClockTime = 292 s

    Overall     = 0.00129018, 0.01
Time = 2497

diagonal:  Solving for rho, Initial residual = 0, Final residual = 0, No Iterations 0

Execution time for mesh.update() = 0.01 s

DILUPBiCGStab:  Solving for Ux, Initial residual = 0.00630547, Final residual = 5.56042e-09, No Iterations 3
DILUPBiCGStab:  Solving for Uy, Initial residual = 0.00515468, Final residual = 7.97455e-09, No Iterations 3
DILUPBiCGStab:  Solving for O2, Initial residual = 0.00208599, Final residual = 2.41138e-09, No Iterations 3
DILUPBiCGStab:  Solving for H2O, Initial residual = 0.00208599, Final residual = 2.41137e-09, No Iterations 3
DILUPBiCGStab:  Solving for CH4, Initial residual = 0, Final residual = 0, No Iterations 0
DILUPBiCGStab:  Solving for CO2, Initial residual = 0.00208599, Final residual = 2.41137e-09, No Iterations 3
DILUPBiCGStab:  Solving for h, Initial residual = 0.0024038, Final residual = 2.33667e-09, No Iterations 3
min/max(T) = 300, 1044.98
GAMGPCG:  Solving for p_rgh, Initial residual = 0.0240507, Final residual = 9.75076e-07, No Iterations 4
diagonal:  Solving for rho, Initial residual = 0, Final residual = 0, No Iterations 0
time step continuity errors : sum local = 3.65244e-08, global = -3.19387e-09, cumulative = 1.4504e-06
GAMGPCG:  Solving for p_rgh, Initial residual = 0.0041467, Final residual = 3.21209e-07, No Iterations 4
diagonal:  Solving for rho, Initial residual = 0, Final residual = 0, No Iterations 0
time step continuity errors : sum local = 1.17245e-08, global = 4.93413e-11, cumulative = 1.45045e-06
DILUPBiCGStab:  Solving for omega, Initial residual = 9.95557e-05, Final residual = 1.69331e-09, No Iterations 2
DILUPBiCGStab:  Solving for k, Initial residual = 0.00423388, Final residual = 1.50837e-09, No Iterations 3

ExecutionTime = 292.42 s  ClockTime = 293 s

    Overall     = 0.00129342, 0.01
Time = 2498

diagonal:  Solving for rho, Initial residual = 0, Final residual = 0, No Iterations 0

Execution time for mesh.update() = 0 s

DILUPBiCGStab:  Solving for Ux, Initial residual = 0.00624903, Final residual = 5.15819e-09, No Iterations 3
DILUPBiCGStab:  Solving for Uy, Initial residual = 0.00515463, Final residual = 9.8852e-09, No Iterations 3
DILUPBiCGStab:  Solving for O2, Initial residual = 0.00207253, Final residual = 2.40778e-09, No Iterations 3
DILUPBiCGStab:  Solving for H2O, Initial residual = 0.00207252, Final residual = 2.40777e-09, No Iterations 3
DILUPBiCGStab:  Solving for CH4, Initial residual = 0, Final residual = 0, No Iterations 0
DILUPBiCGStab:  Solving for CO2, Initial residual = 0.00207252, Final residual = 2.40777e-09, No Iterations 3
DILUPBiCGStab:  Solving for h, Initial residual = 0.00238859, Final residual = 2.39101e-09, No Iterations 3
min/max(T) = 300, 1044.98
GAMGPCG:  Solving for p_rgh, Initial residual = 0.0236194, Final residual = 9.77671e-07, No Iterations 4
diagonal:  Solving for rho, Initial residual = 0, Final residual = 0, No Iterations 0
time step continuity errors : sum local = 3.65415e-08, global = -2.23131e-09, cumulative = 1.44822e-06
GAMGPCG:  Solving for p_rgh, Initial residual = 0.00410297, Final residual = 2.95286e-07, No Iterations 4
diagonal:  Solving for rho, Initial residual = 0, Final residual = 0, No Iterations 0
time step continuity errors : sum local = 1.07808e-08, global = -3.25821e-10, cumulative = 1.4479e-06
DILUPBiCGStab:  Solving for omega, Initial residual = 9.91234e-05, Final residual = 1.82251e-09, No Iterations 2
DILUPBiCGStab:  Solving for k, Initial residual = 0.00423211, Final residual = 1.58429e-09, No Iterations 3

ExecutionTime = 292.53 s  ClockTime = 293 s

    Overall     = 0.00128867, 0.01
Time = 2499

diagonal:  Solving for rho, Initial residual = 0, Final residual = 0, No Iterations 0

Execution time for mesh.update() = 0 s

DILUPBiCGStab:  Solving for Ux, Initial residual = 0.00621562, Final residual = 5.22307e-09, No Iterations 3
DILUPBiCGStab:  Solving for Uy, Initial residual = 0.00514197, Final residual = 9.35698e-09, No Iterations 3
DILUPBiCGStab:  Solving for O2, Initial residual = 0.00205498, Final residual = 2.85584e-09, No Iterations 3
DILUPBiCGStab:  Solving for H2O, Initial residual = 0.00205497, Final residual = 2.85584e-09, No Iterations 3
DILUPBiCGStab:  Solving for CH4, Initial residual = 0, Final residual = 0, No Iterations 0
DILUPBiCGStab:  Solving for CO2, Initial residual = 0.00205497, Final residual = 2.85584e-09, No Iterations 3
DILUPBiCGStab:  Solving for h, Initial residual = 0.00237191, Final residual = 2.55611e-09, No Iterations 3
min/max(T) = 300, 1044.98
GAMGPCG:  Solving for p_rgh, Initial residual = 0.0238922, Final residual = 9.87491e-07, No Iterations 4
diagonal:  Solving for rho, Initial residual = 0, Final residual = 0, No Iterations 0
time step continuity errors : sum local = 3.6316e-08, global = 1.26962e-10, cumulative = 1.44802e-06
GAMGPCG:  Solving for p_rgh, Initial residual = 0.00410916, Final residual = 3.13251e-07, No Iterations 4
diagonal:  Solving for rho, Initial residual = 0, Final residual = 0, No Iterations 0
time step continuity errors : sum local = 1.13701e-08, global = -2.55294e-10, cumulative = 1.44777e-06
DILUPBiCGStab:  Solving for omega, Initial residual = 9.8087e-05, Final residual = 1.89674e-09, No Iterations 2
DILUPBiCGStab:  Solving for k, Initial residual = 0.00419095, Final residual = 1.67412e-09, No Iterations 3

ExecutionTime = 292.65 s  ClockTime = 293 s

    Overall     = 0.00129114, 0.01
Time = 2500

diagonal:  Solving for rho, Initial residual = 0, Final residual = 0, No Iterations 0

Execution time for mesh.update() = 0 s

DILUPBiCGStab:  Solving for Ux, Initial residual = 0.00618555, Final residual = 5.00369e-09, No Iterations 3
DILUPBiCGStab:  Solving for Uy, Initial residual = 0.00511709, Final residual = 6.71529e-09, No Iterations 3
GAMGPCG:  Solving for G, Initial residual = 0.284811, Final residual = 8.0813e-05, No Iterations 5
DILUPBiCGStab:  Solving for O2, Initial residual = 0.00203913, Final residual = 1.08604e-09, No Iterations 3
DILUPBiCGStab:  Solving for H2O, Initial residual = 0.00203912, Final residual = 1.08601e-09, No Iterations 3
DILUPBiCGStab:  Solving for CH4, Initial residual = 0, Final residual = 0, No Iterations 0
DILUPBiCGStab:  Solving for CO2, Initial residual = 0.00203912, Final residual = 1.08601e-09, No Iterations 3
DILUPBiCGStab:  Solving for h, Initial residual = 0.00235188, Final residual = 6.14572e-09, No Iterations 3
min/max(T) = 300, 1044.98
GAMGPCG:  Solving for p_rgh, Initial residual = 0.0235047, Final residual = 9.89667e-07, No Iterations 4
diagonal:  Solving for rho, Initial residual = 0, Final residual = 0, No Iterations 0
time step continuity errors : sum local = 3.65234e-08, global = 3.70987e-10, cumulative = 1.44814e-06
GAMGPCG:  Solving for p_rgh, Initial residual = 0.0040317, Final residual = 3.0396e-07, No Iterations 4
diagonal:  Solving for rho, Initial residual = 0, Final residual = 0, No Iterations 0
time step continuity errors : sum local = 1.10452e-08, global = -5.03383e-10, cumulative = 1.44763e-06
DILUPBiCGStab:  Solving for omega, Initial residual = 9.83648e-05, Final residual = 1.89537e-09, No Iterations 2
DILUPBiCGStab:  Solving for k, Initial residual = 0.00424131, Final residual = 1.8253e-09, No Iterations 3

ExecutionTime = 292.89 s  ClockTime = 293 s


Patch Mean : 302.911
Patch Variance : 0.00451984
Patch Gradient : 0.203859
End
