/*---------------------------------------------------------------------------*\
  =========                 |
  \\      /  F ield         | OpenFOAM: The Open Source CFD Toolbox
   \\    /   O peration     | Website:  https://openfoam.org
    \\  /    A nd           | Version:  dev
     \\/     M anipulation  |
\*---------------------------------------------------------------------------*/
Build  : dev-cabe48fb62c1
Exec   : fireDyMFoam
Date   : Apr 15 2019
Time   : 12:49:14
Host   : "Host"
PID    : 1912
I/O    : uncollated
Case   : /home/tesla/OpenFOAM/tesla-dev/run/rollerOpt_COBYLA_NEW
nProcs : 1
sigFpe : Enabling floating point exception trapping (FOAM_SIGFPE).
fileModificationChecking : Monitoring run-time modified files using timeStampMaster (fileModificationSkew 10)
allowSystemOperations : Allowing user-supplied system call operations

// * * * * * * * * * * * * * * * * * * * * * * * * * * * * * * * * * * * * * //
Create time

--> FOAM Warning : 
    From function void* Foam::dlOpen(const Foam::fileName&, bool)
    in file POSIX.C at line 1268
    dlopen error : libgroovyBC.so: cannot open shared object file: No such file or directory
--> FOAM Warning : 
    From function bool Foam::dlLibraryTable::open(const Foam::fileName&, bool)
    in file db/dynamicLibrary/dlLibraryTable/dlLibraryTable.C at line 105
    could not load "libgroovyBC.so"
Create mesh for time = 250

Selecting dynamicFvMesh dynamicRefineFvMesh
Detected 536 cells that are protected from refinement. Writing these to cellSet protectedCells.

PIMPLE: No convergence criteria found


PIMPLE: Operating solver in PISO mode


Initializing Solver

Selecting thermodynamics package 
{
    type            hePsiThermo;
    mixture         reactingMixture;
    transport       sutherland;
    thermo          janaf;
    energy          sensibleEnthalpy;
    equationOfState perfectGas;
    specie          specie;
}

Selecting chemistryReader foamChemistryReader
    elements not defined in "/home/tesla/OpenFOAM/tesla-dev/run/rollerOpt_COBYLA_NEW/constant/reactions"
Reading/calculating face flux field phi

No MRF models present

Selecting turbulence model type RAS
Selecting RAS turbulence model kOmegaSST
Selecting patchDistMethod meshWave
kOmegaSSTCoeffs
{
    delta           cubeRootVol;
    cubeRootVolCoeffs
    {
        deltaCoeff      1;
    }
    alphaK1         0.85;
    alphaK2         1;
    alphaOmega1     0.5;
    alphaOmega2     0.856;
    gamma1          0.555556;
    gamma2          0.44;
    beta1           0.075;
    beta2           0.0828;
    betaStar        0.09;
    a1              0.31;
    b1              1;
    c1              10;
    F3              false;
}

Selecting combustion model none<psiThermoCombustion>
--> FOAM Warning : 
    From function static Foam::autoPtr<T> Foam::combustionModel::New(typename CombustionModel::reactionThermo&, const Foam::compressibleTurbulenceModel&, const Foam::word&) [with CombustionModel = Foam::CombustionModel<Foam::psiReactionThermo>; typename CombustionModel::reactionThermo = Foam::psiReactionThermo]
    in file /home/tesla/OpenFOAM/OpenFOAM-dev/src/combustionModels/lnInclude/combustionModelTemplates.C at line 69
    Template parameters are no longer required when selecting a combustionModel. This information is now obtained directly from the thermodynamics. Actually selecting combustion model none.

Reading g

Reading hRef
Calculating field g.h


Reading pRef
Selecting radiationModel P1
Selecting absorptionEmissionModel greyMeanAbsorptionEmission
Selecting scatterModel none
Selecting sootModel none
Creating finite volume options from "system/fvOptions"

No finite volume options present
Using LTS

Starting time loop

Using dynamicCode for functionObject patchCalcs at line 64 in "/home/tesla/OpenFOAM/tesla-dev/run/rollerOpt_COBYLA_NEW/system/controlDict.functions.patchCalcs"
    Overall     = 0.00170306, 0.01
Time = 251

diagonal:  Solving for rho, Initial residual = 0, Final residual = 0, No Iterations 0

Execution time for mesh.update() = 0 s

DILUPBiCGStab:  Solving for Ux, Initial residual = 0.00578364, Final residual = 5.07674e-09, No Iterations 3
DILUPBiCGStab:  Solving for Uy, Initial residual = 0.00830627, Final residual = 5.85663e-09, No Iterations 3
GAMGPCG:  Solving for G, Initial residual = 0.0345283, Final residual = 4.7998e-05, No Iterations 4
DILUPBiCGStab:  Solving for O2, Initial residual = 0.00369694, Final residual = 1.15716e-09, No Iterations 3
DILUPBiCGStab:  Solving for H2O, Initial residual = 0.0036968, Final residual = 1.15773e-09, No Iterations 3
DILUPBiCGStab:  Solving for CH4, Initial residual = 0, Final residual = 0, No Iterations 0
DILUPBiCGStab:  Solving for CO2, Initial residual = 0.0036968, Final residual = 1.15722e-09, No Iterations 3
DILUPBiCGStab:  Solving for h, Initial residual = 0.00428374, Final residual = 6.29985e-09, No Iterations 3
min/max(T) = 299.706, 1044.97
GAMGPCG:  Solving for p_rgh, Initial residual = 0.0208316, Final residual = 9.81836e-07, No Iterations 4
diagonal:  Solving for rho, Initial residual = 0, Final residual = 0, No Iterations 0
time step continuity errors : sum local = 2.47077e-06, global = -1.24448e-07, cumulative = -1.24448e-07
GAMGPCG:  Solving for p_rgh, Initial residual = 0.00271428, Final residual = 2.8456e-07, No Iterations 4
diagonal:  Solving for rho, Initial residual = 0, Final residual = 0, No Iterations 0
time step continuity errors : sum local = 2.46632e-06, global = -1.26435e-07, cumulative = -2.50883e-07
DILUPBiCGStab:  Solving for omega, Initial residual = 0.000131947, Final residual = 2.24682e-09, No Iterations 2
DILUPBiCGStab:  Solving for k, Initial residual = 0.00765455, Final residual = 7.02801e-09, No Iterations 3

ExecutionTime = 0.39 s  ClockTime = 1 s

    Overall     = 0.0017156, 0.01
Time = 252

diagonal:  Solving for rho, Initial residual = 0, Final residual = 0, No Iterations 0

Execution time for mesh.update() = 0 s

DILUPBiCGStab:  Solving for Ux, Initial residual = 0.00577176, Final residual = 5.20667e-09, No Iterations 3
DILUPBiCGStab:  Solving for Uy, Initial residual = 0.00829334, Final residual = 8.38549e-09, No Iterations 3
DILUPBiCGStab:  Solving for O2, Initial residual = 0.0036838, Final residual = 2.30848e-09, No Iterations 3
DILUPBiCGStab:  Solving for H2O, Initial residual = 0.00368402, Final residual = 2.30753e-09, No Iterations 3
DILUPBiCGStab:  Solving for CH4, Initial residual = 0, Final residual = 0, No Iterations 0
DILUPBiCGStab:  Solving for CO2, Initial residual = 0.00368402, Final residual = 2.30611e-09, No Iterations 3
DILUPBiCGStab:  Solving for h, Initial residual = 0.00426414, Final residual = 5.61828e-09, No Iterations 3
min/max(T) = 299.66, 1044.97
GAMGPCG:  Solving for p_rgh, Initial residual = 0.020546, Final residual = 1.10606e-07, No Iterations 5
diagonal:  Solving for rho, Initial residual = 0, Final residual = 0, No Iterations 0
time step continuity errors : sum local = 6.42987e-09, global = -5.32983e-10, cumulative = -2.51416e-07
GAMGPCG:  Solving for p_rgh, Initial residual = 0.00262352, Final residual = 2.73526e-07, No Iterations 4
diagonal:  Solving for rho, Initial residual = 0, Final residual = 0, No Iterations 0
time step continuity errors : sum local = 1.50603e-08, global = -1.39741e-10, cumulative = -2.51556e-07
DILUPBiCGStab:  Solving for omega, Initial residual = 0.000131136, Final residual = 2.06902e-09, No Iterations 2
DILUPBiCGStab:  Solving for k, Initial residual = 0.00770062, Final residual = 7.6134e-09, No Iterations 3

ExecutionTime = 0.5 s  ClockTime = 1 s

    Overall     = 0.00171156, 0.01
Time = 253

diagonal:  Solving for rho, Initial residual = 0, Final residual = 0, No Iterations 0

Execution time for mesh.update() = 0 s

DILUPBiCGStab:  Solving for Ux, Initial residual = 0.00577352, Final residual = 5.50214e-09, No Iterations 3
DILUPBiCGStab:  Solving for Uy, Initial residual = 0.00829284, Final residual = 7.5704e-10, No Iterations 3
DILUPBiCGStab:  Solving for O2, Initial residual = 0.00367281, Final residual = 6.02201e-09, No Iterations 3
DILUPBiCGStab:  Solving for H2O, Initial residual = 0.00367272, Final residual = 6.0225e-09, No Iterations 3
DILUPBiCGStab:  Solving for CH4, Initial residual = 0, Final residual = 0, No Iterations 0
DILUPBiCGStab:  Solving for CO2, Initial residual = 0.00367272, Final residual = 6.02241e-09, No Iterations 3
DILUPBiCGStab:  Solving for h, Initial residual = 0.00425667, Final residual = 6.22532e-09, No Iterations 3
min/max(T) = 299.699, 1044.97
GAMGPCG:  Solving for p_rgh, Initial residual = 0.0203769, Final residual = 8.91281e-07, No Iterations 4
diagonal:  Solving for rho, Initial residual = 0, Final residual = 0, No Iterations 0
time step continuity errors : sum local = 5.16064e-08, global = 2.68566e-09, cumulative = -2.4887e-07
GAMGPCG:  Solving for p_rgh, Initial residual = 0.00257988, Final residual = 2.50164e-07, No Iterations 4
diagonal:  Solving for rho, Initial residual = 0, Final residual = 0, No Iterations 0
time step continuity errors : sum local = 1.39236e-08, global = -4.30657e-11, cumulative = -2.48913e-07
DILUPBiCGStab:  Solving for omega, Initial residual = 0.000131471, Final residual = 2.05719e-09, No Iterations 2
DILUPBiCGStab:  Solving for k, Initial residual = 0.00776326, Final residual = 7.63958e-09, No Iterations 3

ExecutionTime = 0.62 s  ClockTime = 1 s

    Overall     = 0.00172315, 0.01
Time = 254

diagonal:  Solving for rho, Initial residual = 0, Final residual = 0, No Iterations 0

Execution time for mesh.update() = 0 s

DILUPBiCGStab:  Solving for Ux, Initial residual = 0.00577156, Final residual = 5.98095e-09, No Iterations 3
DILUPBiCGStab:  Solving for Uy, Initial residual = 0.0082747, Final residual = 7.53832e-10, No Iterations 3
DILUPBiCGStab:  Solving for O2, Initial residual = 0.0036607, Final residual = 5.20771e-09, No Iterations 3
DILUPBiCGStab:  Solving for H2O, Initial residual = 0.00366091, Final residual = 5.20826e-09, No Iterations 3
DILUPBiCGStab:  Solving for CH4, Initial residual = 0, Final residual = 0, No Iterations 0
DILUPBiCGStab:  Solving for CO2, Initial residual = 0.00366091, Final residual = 5.20819e-09, No Iterations 3
DILUPBiCGStab:  Solving for h, Initial residual = 0.00424438, Final residual = 5.32525e-09, No Iterations 3
min/max(T) = 299.666, 1044.97
GAMGPCG:  Solving for p_rgh, Initial residual = 0.0205385, Final residual = 9.08126e-07, No Iterations 4
diagonal:  Solving for rho, Initial residual = 0, Final residual = 0, No Iterations 0
time step continuity errors : sum local = 5.22108e-08, global = 4.74149e-09, cumulative = -2.44172e-07
GAMGPCG:  Solving for p_rgh, Initial residual = 0.00261877, Final residual = 2.57596e-07, No Iterations 4
diagonal:  Solving for rho, Initial residual = 0, Final residual = 0, No Iterations 0
time step continuity errors : sum local = 1.41787e-08, global = -1.48887e-10, cumulative = -2.44321e-07
DILUPBiCGStab:  Solving for omega, Initial residual = 0.000131305, Final residual = 1.97201e-09, No Iterations 2
DILUPBiCGStab:  Solving for k, Initial residual = 0.00781756, Final residual = 7.85906e-09, No Iterations 3

ExecutionTime = 0.73 s  ClockTime = 1 s

    Overall     = 0.0017184, 0.01
Time = 255

diagonal:  Solving for rho, Initial residual = 0, Final residual = 0, No Iterations 0

Execution time for mesh.update() = 0 s

DILUPBiCGStab:  Solving for Ux, Initial residual = 0.00577929, Final residual = 7.29167e-09, No Iterations 3
DILUPBiCGStab:  Solving for Uy, Initial residual = 0.0083007, Final residual = 8.61091e-10, No Iterations 3
DILUPBiCGStab:  Solving for O2, Initial residual = 0.003665, Final residual = 4.82041e-09, No Iterations 3
DILUPBiCGStab:  Solving for H2O, Initial residual = 0.0036649, Final residual = 4.82048e-09, No Iterations 3
DILUPBiCGStab:  Solving for CH4, Initial residual = 0, Final residual = 0, No Iterations 0
DILUPBiCGStab:  Solving for CO2, Initial residual = 0.0036649, Final residual = 4.82045e-09, No Iterations 3
DILUPBiCGStab:  Solving for h, Initial residual = 0.0042443, Final residual = 5.09192e-09, No Iterations 3
min/max(T) = 299.692, 1044.97
GAMGPCG:  Solving for p_rgh, Initial residual = 0.0201866, Final residual = 1.40279e-07, No Iterations 5
diagonal:  Solving for rho, Initial residual = 0, Final residual = 0, No Iterations 0
time step continuity errors : sum local = 8.13239e-09, global = 4.29178e-10, cumulative = -2.43891e-07
GAMGPCG:  Solving for p_rgh, Initial residual = 0.00260514, Final residual = 2.56895e-07, No Iterations 4
diagonal:  Solving for rho, Initial residual = 0, Final residual = 0, No Iterations 0
time step continuity errors : sum local = 1.41932e-08, global = 3.19313e-11, cumulative = -2.43859e-07
DILUPBiCGStab:  Solving for omega, Initial residual = 0.000131594, Final residual = 1.80745e-09, No Iterations 2
DILUPBiCGStab:  Solving for k, Initial residual = 0.00787481, Final residual = 7.21296e-09, No Iterations 3

ExecutionTime = 0.85 s  ClockTime = 1 s

    Overall     = 0.00172957, 0.01
Time = 256

diagonal:  Solving for rho, Initial residual = 0, Final residual = 0, No Iterations 0

Execution time for mesh.update() = 0 s

DILUPBiCGStab:  Solving for Ux, Initial residual = 0.00577852, Final residual = 7.67555e-09, No Iterations 3
DILUPBiCGStab:  Solving for Uy, Initial residual = 0.00830094, Final residual = 9.65768e-10, No Iterations 3
DILUPBiCGStab:  Solving for O2, Initial residual = 0.00365653, Final residual = 4.09059e-09, No Iterations 3
DILUPBiCGStab:  Solving for H2O, Initial residual = 0.00365673, Final residual = 4.09065e-09, No Iterations 3
DILUPBiCGStab:  Solving for CH4, Initial residual = 0, Final residual = 0, No Iterations 0
DILUPBiCGStab:  Solving for CO2, Initial residual = 0.00365673, Final residual = 4.09065e-09, No Iterations 3
DILUPBiCGStab:  Solving for h, Initial residual = 0.00423191, Final residual = 4.46667e-09, No Iterations 3
min/max(T) = 299.674, 1044.97
GAMGPCG:  Solving for p_rgh, Initial residual = 0.0202921, Final residual = 9.35471e-07, No Iterations 4
diagonal:  Solving for rho, Initial residual = 0, Final residual = 0, No Iterations 0
time step continuity errors : sum local = 5.40677e-08, global = 5.08816e-09, cumulative = -2.38771e-07
GAMGPCG:  Solving for p_rgh, Initial residual = 0.00260252, Final residual = 2.28157e-07, No Iterations 4
diagonal:  Solving for rho, Initial residual = 0, Final residual = 0, No Iterations 0
time step continuity errors : sum local = 1.2488e-08, global = -2.25861e-11, cumulative = -2.38794e-07
DILUPBiCGStab:  Solving for omega, Initial residual = 0.000131212, Final residual = 1.90668e-09, No Iterations 2
DILUPBiCGStab:  Solving for k, Initial residual = 0.00793208, Final residual = 7.55653e-09, No Iterations 3

ExecutionTime = 0.97 s  ClockTime = 1 s

    Overall     = 0.00172354, 0.01
Time = 257

diagonal:  Solving for rho, Initial residual = 0, Final residual = 0, No Iterations 0

Execution time for mesh.update() = 0 s

DILUPBiCGStab:  Solving for Ux, Initial residual = 0.00578096, Final residual = 8.17309e-09, No Iterations 3
DILUPBiCGStab:  Solving for Uy, Initial residual = 0.00831974, Final residual = 9.59127e-09, No Iterations 3
DILUPBiCGStab:  Solving for O2, Initial residual = 0.0036589, Final residual = 3.82547e-09, No Iterations 3
DILUPBiCGStab:  Solving for H2O, Initial residual = 0.0036588, Final residual = 3.8254e-09, No Iterations 3
DILUPBiCGStab:  Solving for CH4, Initial residual = 0, Final residual = 0, No Iterations 0
DILUPBiCGStab:  Solving for CO2, Initial residual = 0.0036588, Final residual = 3.8254e-09, No Iterations 3
DILUPBiCGStab:  Solving for h, Initial residual = 0.00424023, Final residual = 4.23976e-09, No Iterations 3
min/max(T) = 299.682, 1044.97
GAMGPCG:  Solving for p_rgh, Initial residual = 0.0206495, Final residual = 1.2251e-07, No Iterations 5
diagonal:  Solving for rho, Initial residual = 0, Final residual = 0, No Iterations 0
time step continuity errors : sum local = 7.04613e-09, global = -1.0023e-10, cumulative = -2.38894e-07
GAMGPCG:  Solving for p_rgh, Initial residual = 0.00264834, Final residual = 2.27154e-07, No Iterations 4
diagonal:  Solving for rho, Initial residual = 0, Final residual = 0, No Iterations 0
time step continuity errors : sum local = 1.24915e-08, global = -3.84504e-11, cumulative = -2.38933e-07
DILUPBiCGStab:  Solving for omega, Initial residual = 0.000131722, Final residual = 1.88362e-09, No Iterations 2
DILUPBiCGStab:  Solving for k, Initial residual = 0.00797449, Final residual = 7.96704e-09, No Iterations 3

ExecutionTime = 1.09 s  ClockTime = 1 s

    Overall     = 0.00173293, 0.01
Time = 258

diagonal:  Solving for rho, Initial residual = 0, Final residual = 0, No Iterations 0

Execution time for mesh.update() = 0 s

DILUPBiCGStab:  Solving for Ux, Initial residual = 0.00576717, Final residual = 7.50576e-09, No Iterations 3
DILUPBiCGStab:  Solving for Uy, Initial residual = 0.00832669, Final residual = 8.9925e-09, No Iterations 3
DILUPBiCGStab:  Solving for O2, Initial residual = 0.00365858, Final residual = 3.6716e-09, No Iterations 3
DILUPBiCGStab:  Solving for H2O, Initial residual = 0.00365876, Final residual = 3.67153e-09, No Iterations 3
DILUPBiCGStab:  Solving for CH4, Initial residual = 0, Final residual = 0, No Iterations 0
DILUPBiCGStab:  Solving for CO2, Initial residual = 0.00365876, Final residual = 3.67154e-09, No Iterations 3
DILUPBiCGStab:  Solving for h, Initial residual = 0.00424253, Final residual = 3.98848e-09, No Iterations 3
min/max(T) = 299.675, 1044.97
GAMGPCG:  Solving for p_rgh, Initial residual = 0.0205383, Final residual = 8.55819e-07, No Iterations 4
diagonal:  Solving for rho, Initial residual = 0, Final residual = 0, No Iterations 0
time step continuity errors : sum local = 4.90386e-08, global = 2.55428e-09, cumulative = -2.36378e-07
GAMGPCG:  Solving for p_rgh, Initial residual = 0.00262573, Final residual = 1.85868e-07, No Iterations 4
diagonal:  Solving for rho, Initial residual = 0, Final residual = 0, No Iterations 0
time step continuity errors : sum local = 1.03296e-08, global = -5.94243e-10, cumulative = -2.36973e-07
DILUPBiCGStab:  Solving for omega, Initial residual = 0.000131213, Final residual = 1.89965e-09, No Iterations 2
DILUPBiCGStab:  Solving for k, Initial residual = 0.00804283, Final residual = 6.83306e-09, No Iterations 3

ExecutionTime = 1.21 s  ClockTime = 2 s

    Overall     = 0.00172597, 0.01
Time = 259

diagonal:  Solving for rho, Initial residual = 0, Final residual = 0, No Iterations 0

Execution time for mesh.update() = 0 s

DILUPBiCGStab:  Solving for Ux, Initial residual = 0.00577213, Final residual = 6.70534e-09, No Iterations 3
DILUPBiCGStab:  Solving for Uy, Initial residual = 0.00832186, Final residual = 9.29077e-09, No Iterations 3
DILUPBiCGStab:  Solving for O2, Initial residual = 0.00365891, Final residual = 3.40278e-09, No Iterations 3
DILUPBiCGStab:  Solving for H2O, Initial residual = 0.00365879, Final residual = 3.4027e-09, No Iterations 3
DILUPBiCGStab:  Solving for CH4, Initial residual = 0, Final residual = 0, No Iterations 0
DILUPBiCGStab:  Solving for CO2, Initial residual = 0.00365879, Final residual = 3.40271e-09, No Iterations 3
DILUPBiCGStab:  Solving for h, Initial residual = 0.00424294, Final residual = 3.68951e-09, No Iterations 3
min/max(T) = 299.68, 1044.97
GAMGPCG:  Solving for p_rgh, Initial residual = 0.0201793, Final residual = 6.79929e-07, No Iterations 4
diagonal:  Solving for rho, Initial residual = 0, Final residual = 0, No Iterations 0
time step continuity errors : sum local = 3.81468e-08, global = -3.02213e-09, cumulative = -2.39995e-07
GAMGPCG:  Solving for p_rgh, Initial residual = 0.00261963, Final residual = 1.79219e-07, No Iterations 4
diagonal:  Solving for rho, Initial residual = 0, Final residual = 0, No Iterations 0
time step continuity errors : sum local = 9.79073e-09, global = -2.57781e-10, cumulative = -2.40252e-07
DILUPBiCGStab:  Solving for omega, Initial residual = 0.000131781, Final residual = 1.96215e-09, No Iterations 2
DILUPBiCGStab:  Solving for k, Initial residual = 0.00812125, Final residual = 5.99547e-09, No Iterations 3

ExecutionTime = 1.32 s  ClockTime = 2 s

    Overall     = 0.00173412, 0.01
Time = 260

diagonal:  Solving for rho, Initial residual = 0, Final residual = 0, No Iterations 0

Execution time for mesh.update() = 0 s

DILUPBiCGStab:  Solving for Ux, Initial residual = 0.00574553, Final residual = 6.4507e-09, No Iterations 3
DILUPBiCGStab:  Solving for Uy, Initial residual = 0.00830767, Final residual = 9.50069e-09, No Iterations 3
GAMGPCG:  Solving for G, Initial residual = 0.128634, Final residual = 7.83933e-05, No Iterations 5
DILUPBiCGStab:  Solving for O2, Initial residual = 0.00366114, Final residual = 3.45024e-09, No Iterations 3
DILUPBiCGStab:  Solving for H2O, Initial residual = 0.00366129, Final residual = 3.45019e-09, No Iterations 3
DILUPBiCGStab:  Solving for CH4, Initial residual = 0, Final residual = 0, No Iterations 0
DILUPBiCGStab:  Solving for CO2, Initial residual = 0.00366129, Final residual = 3.4502e-09, No Iterations 3
DILUPBiCGStab:  Solving for h, Initial residual = 0.00424582, Final residual = 3.72202e-09, No Iterations 3
min/max(T) = 299.681, 1044.97
GAMGPCG:  Solving for p_rgh, Initial residual = 0.020243, Final residual = 7.34588e-07, No Iterations 4
diagonal:  Solving for rho, Initial residual = 0, Final residual = 0, No Iterations 0
time step continuity errors : sum local = 4.18755e-08, global = 9.58889e-10, cumulative = -2.39294e-07
GAMGPCG:  Solving for p_rgh, Initial residual = 0.00257079, Final residual = 1.40758e-07, No Iterations 4
diagonal:  Solving for rho, Initial residual = 0, Final residual = 0, No Iterations 0
time step continuity errors : sum local = 7.79601e-09, global = -4.30221e-10, cumulative = -2.39724e-07
DILUPBiCGStab:  Solving for omega, Initial residual = 0.000132155, Final residual = 2.04309e-09, No Iterations 2
DILUPBiCGStab:  Solving for k, Initial residual = 0.00817901, Final residual = 5.7437e-09, No Iterations 3

ExecutionTime = 1.57 s  ClockTime = 2 s

    Overall     = 0.00172446, 0.01
Time = 261

diagonal:  Solving for rho, Initial residual = 0, Final residual = 0, No Iterations 0

Execution time for mesh.update() = 0.01 s

DILUPBiCGStab:  Solving for Ux, Initial residual = 0.00575436, Final residual = 6.24457e-09, No Iterations 3
DILUPBiCGStab:  Solving for Uy, Initial residual = 0.0083287, Final residual = 9.27519e-09, No Iterations 3
DILUPBiCGStab:  Solving for O2, Initial residual = 0.00365911, Final residual = 3.38537e-09, No Iterations 3
DILUPBiCGStab:  Solving for H2O, Initial residual = 0.00365896, Final residual = 3.38534e-09, No Iterations 3
DILUPBiCGStab:  Solving for CH4, Initial residual = 0, Final residual = 0, No Iterations 0
DILUPBiCGStab:  Solving for CO2, Initial residual = 0.00365896, Final residual = 3.38536e-09, No Iterations 3
DILUPBiCGStab:  Solving for h, Initial residual = 0.00424631, Final residual = 3.62697e-09, No Iterations 3
min/max(T) = 299.686, 1044.97
GAMGPCG:  Solving for p_rgh, Initial residual = 0.0202279, Final residual = 5.07213e-07, No Iterations 4
diagonal:  Solving for rho, Initial residual = 0, Final residual = 0, No Iterations 0
time step continuity errors : sum local = 2.82475e-08, global = -1.1891e-09, cumulative = -2.40913e-07
GAMGPCG:  Solving for p_rgh, Initial residual = 0.00260089, Final residual = 1.35164e-07, No Iterations 4
diagonal:  Solving for rho, Initial residual = 0, Final residual = 0, No Iterations 0
time step continuity errors : sum local = 7.54338e-09, global = -4.7616e-10, cumulative = -2.41389e-07
DILUPBiCGStab:  Solving for omega, Initial residual = 0.00013173, Final residual = 2.14778e-09, No Iterations 2
DILUPBiCGStab:  Solving for k, Initial residual = 0.00821813, Final residual = 5.87147e-09, No Iterations 3

ExecutionTime = 1.69 s  ClockTime = 2 s

    Overall     = 0.00173081, 0.01
Time = 262

diagonal:  Solving for rho, Initial residual = 0, Final residual = 0, No Iterations 0

Execution time for mesh.update() = 0 s

DILUPBiCGStab:  Solving for Ux, Initial residual = 0.00577229, Final residual = 6.80005e-09, No Iterations 3
DILUPBiCGStab:  Solving for Uy, Initial residual = 0.00833115, Final residual = 9.24455e-09, No Iterations 3
DILUPBiCGStab:  Solving for O2, Initial residual = 0.00366405, Final residual = 3.42382e-09, No Iterations 3
DILUPBiCGStab:  Solving for H2O, Initial residual = 0.00366419, Final residual = 3.4238e-09, No Iterations 3
DILUPBiCGStab:  Solving for CH4, Initial residual = 0, Final residual = 0, No Iterations 0
DILUPBiCGStab:  Solving for CO2, Initial residual = 0.00366419, Final residual = 3.42382e-09, No Iterations 3
DILUPBiCGStab:  Solving for h, Initial residual = 0.00425566, Final residual = 3.61659e-09, No Iterations 3
min/max(T) = 299.678, 1044.97
GAMGPCG:  Solving for p_rgh, Initial residual = 0.0207322, Final residual = 5.77107e-07, No Iterations 4
diagonal:  Solving for rho, Initial residual = 0, Final residual = 0, No Iterations 0
time step continuity errors : sum local = 3.23528e-08, global = -2.50785e-09, cumulative = -2.43897e-07
GAMGPCG:  Solving for p_rgh, Initial residual = 0.0026446, Final residual = 8.58138e-07, No Iterations 3
diagonal:  Solving for rho, Initial residual = 0, Final residual = 0, No Iterations 0
time step continuity errors : sum local = 4.63392e-08, global = 2.95092e-09, cumulative = -2.40946e-07
DILUPBiCGStab:  Solving for omega, Initial residual = 0.00013149, Final residual = 2.17928e-09, No Iterations 2
DILUPBiCGStab:  Solving for k, Initial residual = 0.00828415, Final residual = 8.00277e-09, No Iterations 3

ExecutionTime = 1.8 s  ClockTime = 2 s

    Overall     = 0.0017195, 0.01
Time = 263

diagonal:  Solving for rho, Initial residual = 0, Final residual = 0, No Iterations 0

Execution time for mesh.update() = 0 s

DILUPBiCGStab:  Solving for Ux, Initial residual = 0.00579231, Final residual = 7.03674e-09, No Iterations 3
DILUPBiCGStab:  Solving for Uy, Initial residual = 0.00837557, Final residual = 9.61601e-09, No Iterations 3
DILUPBiCGStab:  Solving for O2, Initial residual = 0.0036607, Final residual = 3.54383e-09, No Iterations 3
DILUPBiCGStab:  Solving for H2O, Initial residual = 0.00366053, Final residual = 3.54378e-09, No Iterations 3
DILUPBiCGStab:  Solving for CH4, Initial residual = 0, Final residual = 0, No Iterations 0
DILUPBiCGStab:  Solving for CO2, Initial residual = 0.00366053, Final residual = 3.54381e-09, No Iterations 3
DILUPBiCGStab:  Solving for h, Initial residual = 0.00424949, Final residual = 3.66881e-09, No Iterations 3
min/max(T) = 299.691, 1044.97
GAMGPCG:  Solving for p_rgh, Initial residual = 0.0214114, Final residual = 4.6239e-07, No Iterations 4
diagonal:  Solving for rho, Initial residual = 0, Final residual = 0, No Iterations 0
time step continuity errors : sum local = 2.54808e-08, global = 3.22851e-09, cumulative = -2.37717e-07
GAMGPCG:  Solving for p_rgh, Initial residual = 0.00271122, Final residual = 8.9644e-07, No Iterations 3
diagonal:  Solving for rho, Initial residual = 0, Final residual = 0, No Iterations 0
time step continuity errors : sum local = 4.83294e-08, global = 1.49808e-09, cumulative = -2.36219e-07
DILUPBiCGStab:  Solving for omega, Initial residual = 0.00013181, Final residual = 2.07526e-09, No Iterations 2
DILUPBiCGStab:  Solving for k, Initial residual = 0.00832857, Final residual = 2.82716e-09, No Iterations 3

ExecutionTime = 1.92 s  ClockTime = 2 s

    Overall     = 0.00172403, 0.01
Time = 264

diagonal:  Solving for rho, Initial residual = 0, Final residual = 0, No Iterations 0

Execution time for mesh.update() = 0 s

DILUPBiCGStab:  Solving for Ux, Initial residual = 0.00580817, Final residual = 6.54258e-09, No Iterations 3
DILUPBiCGStab:  Solving for Uy, Initial residual = 0.00838357, Final residual = 9.11848e-09, No Iterations 3
DILUPBiCGStab:  Solving for O2, Initial residual = 0.00366112, Final residual = 4.90008e-09, No Iterations 3
DILUPBiCGStab:  Solving for H2O, Initial residual = 0.00366124, Final residual = 4.89998e-09, No Iterations 3
DILUPBiCGStab:  Solving for CH4, Initial residual = 0, Final residual = 0, No Iterations 0
DILUPBiCGStab:  Solving for CO2, Initial residual = 0.00366124, Final residual = 4.90002e-09, No Iterations 3
DILUPBiCGStab:  Solving for h, Initial residual = 0.00424655, Final residual = 5.37035e-09, No Iterations 3
min/max(T) = 299.672, 1044.97
GAMGPCG:  Solving for p_rgh, Initial residual = 0.0212431, Final residual = 5.43782e-07, No Iterations 4
diagonal:  Solving for rho, Initial residual = 0, Final residual = 0, No Iterations 0
time step continuity errors : sum local = 3.0028e-08, global = -1.30492e-09, cumulative = -2.37524e-07
GAMGPCG:  Solving for p_rgh, Initial residual = 0.00272104, Final residual = 9.11611e-07, No Iterations 3
diagonal:  Solving for rho, Initial residual = 0, Final residual = 0, No Iterations 0
time step continuity errors : sum local = 4.90734e-08, global = 3.96385e-09, cumulative = -2.3356e-07
DILUPBiCGStab:  Solving for omega, Initial residual = 0.000131954, Final residual = 2.09266e-09, No Iterations 2
DILUPBiCGStab:  Solving for k, Initial residual = 0.00837752, Final residual = 2.88337e-11, No Iterations 4

ExecutionTime = 2.03 s  ClockTime = 2 s

    Overall     = 0.00171161, 0.01
Time = 265

diagonal:  Solving for rho, Initial residual = 0, Final residual = 0, No Iterations 0

Execution time for mesh.update() = 0 s

DILUPBiCGStab:  Solving for Ux, Initial residual = 0.00582209, Final residual = 5.53569e-09, No Iterations 3
DILUPBiCGStab:  Solving for Uy, Initial residual = 0.00837441, Final residual = 9.40896e-09, No Iterations 3
DILUPBiCGStab:  Solving for O2, Initial residual = 0.00366348, Final residual = 4.6823e-09, No Iterations 3
DILUPBiCGStab:  Solving for H2O, Initial residual = 0.00366329, Final residual = 4.68216e-09, No Iterations 3
DILUPBiCGStab:  Solving for CH4, Initial residual = 0, Final residual = 0, No Iterations 0
DILUPBiCGStab:  Solving for CO2, Initial residual = 0.00366329, Final residual = 4.68217e-09, No Iterations 3
DILUPBiCGStab:  Solving for h, Initial residual = 0.00425252, Final residual = 5.38372e-09, No Iterations 3
min/max(T) = 299.694, 1044.97
GAMGPCG:  Solving for p_rgh, Initial residual = 0.0217293, Final residual = 3.8506e-07, No Iterations 4
diagonal:  Solving for rho, Initial residual = 0, Final residual = 0, No Iterations 0
time step continuity errors : sum local = 2.12996e-08, global = 2.85647e-09, cumulative = -2.30704e-07
GAMGPCG:  Solving for p_rgh, Initial residual = 0.00280572, Final residual = 8.83668e-07, No Iterations 3
diagonal:  Solving for rho, Initial residual = 0, Final residual = 0, No Iterations 0
time step continuity errors : sum local = 4.69739e-08, global = 3.41797e-09, cumulative = -2.27286e-07
DILUPBiCGStab:  Solving for omega, Initial residual = 0.00013251, Final residual = 2.034e-09, No Iterations 2
DILUPBiCGStab:  Solving for k, Initial residual = 0.00843685, Final residual = 9.00585e-10, No Iterations 3

ExecutionTime = 2.15 s  ClockTime = 2 s

    Overall     = 0.00171592, 0.01
Time = 266

diagonal:  Solving for rho, Initial residual = 0, Final residual = 0, No Iterations 0

Execution time for mesh.update() = 0 s

DILUPBiCGStab:  Solving for Ux, Initial residual = 0.00585123, Final residual = 5.60657e-09, No Iterations 3
DILUPBiCGStab:  Solving for Uy, Initial residual = 0.00839682, Final residual = 9.0515e-10, No Iterations 3
DILUPBiCGStab:  Solving for O2, Initial residual = 0.00366807, Final residual = 4.06811e-09, No Iterations 3
DILUPBiCGStab:  Solving for H2O, Initial residual = 0.00366819, Final residual = 4.06799e-09, No Iterations 3
DILUPBiCGStab:  Solving for CH4, Initial residual = 0, Final residual = 0, No Iterations 0
DILUPBiCGStab:  Solving for CO2, Initial residual = 0.00366819, Final residual = 4.06799e-09, No Iterations 3
DILUPBiCGStab:  Solving for h, Initial residual = 0.00425417, Final residual = 5.20822e-09, No Iterations 3
min/max(T) = 299.669, 1044.97
GAMGPCG:  Solving for p_rgh, Initial residual = 0.021687, Final residual = 5.8991e-07, No Iterations 4
diagonal:  Solving for rho, Initial residual = 0, Final residual = 0, No Iterations 0
time step continuity errors : sum local = 3.313e-08, global = 5.03744e-09, cumulative = -2.22249e-07
GAMGPCG:  Solving for p_rgh, Initial residual = 0.00273952, Final residual = 9.7061e-07, No Iterations 3
diagonal:  Solving for rho, Initial residual = 0, Final residual = 0, No Iterations 0
time step continuity errors : sum local = 5.17921e-08, global = 4.27883e-09, cumulative = -2.1797e-07
DILUPBiCGStab:  Solving for omega, Initial residual = 0.000132261, Final residual = 1.9639e-09, No Iterations 2
DILUPBiCGStab:  Solving for k, Initial residual = 0.00849639, Final residual = 7.64551e-09, No Iterations 3

ExecutionTime = 2.26 s  ClockTime = 3 s

    Overall     = 0.00170184, 0.01
Time = 267

diagonal:  Solving for rho, Initial residual = 0, Final residual = 0, No Iterations 0

Execution time for mesh.update() = 0 s

DILUPBiCGStab:  Solving for Ux, Initial residual = 0.00584645, Final residual = 5.24856e-09, No Iterations 3
DILUPBiCGStab:  Solving for Uy, Initial residual = 0.0083673, Final residual = 8.61554e-10, No Iterations 3
DILUPBiCGStab:  Solving for O2, Initial residual = 0.0036657, Final residual = 3.26194e-09, No Iterations 3
DILUPBiCGStab:  Solving for H2O, Initial residual = 0.00366549, Final residual = 3.26177e-09, No Iterations 3
DILUPBiCGStab:  Solving for CH4, Initial residual = 0, Final residual = 0, No Iterations 0
DILUPBiCGStab:  Solving for CO2, Initial residual = 0.00366549, Final residual = 3.26176e-09, No Iterations 3
DILUPBiCGStab:  Solving for h, Initial residual = 0.0042567, Final residual = 3.70101e-09, No Iterations 3
min/max(T) = 299.7, 1044.97
GAMGPCG:  Solving for p_rgh, Initial residual = 0.0218342, Final residual = 3.92299e-07, No Iterations 4
diagonal:  Solving for rho, Initial residual = 0, Final residual = 0, No Iterations 0
time step continuity errors : sum local = 2.22953e-08, global = 4.46184e-09, cumulative = -2.13508e-07
GAMGPCG:  Solving for p_rgh, Initial residual = 0.00270949, Final residual = 8.43416e-07, No Iterations 3
diagonal:  Solving for rho, Initial residual = 0, Final residual = 0, No Iterations 0
time step continuity errors : sum local = 4.48221e-08, global = 2.54437e-09, cumulative = -2.10964e-07
DILUPBiCGStab:  Solving for omega, Initial residual = 0.000133865, Final residual = 1.90903e-09, No Iterations 2
DILUPBiCGStab:  Solving for k, Initial residual = 0.00854131, Final residual = 9.27343e-09, No Iterations 3

ExecutionTime = 2.37 s  ClockTime = 3 s

    Overall     = 0.00170524, 0.01
Time = 268

diagonal:  Solving for rho, Initial residual = 0, Final residual = 0, No Iterations 0

Execution time for mesh.update() = 0 s

DILUPBiCGStab:  Solving for Ux, Initial residual = 0.00590022, Final residual = 5.40247e-09, No Iterations 3
DILUPBiCGStab:  Solving for Uy, Initial residual = 0.00835984, Final residual = 8.81591e-10, No Iterations 3
DILUPBiCGStab:  Solving for O2, Initial residual = 0.00366835, Final residual = 2.77304e-09, No Iterations 3
DILUPBiCGStab:  Solving for H2O, Initial residual = 0.00366845, Final residual = 2.77297e-09, No Iterations 3
DILUPBiCGStab:  Solving for CH4, Initial residual = 0, Final residual = 0, No Iterations 0
DILUPBiCGStab:  Solving for CO2, Initial residual = 0.00366845, Final residual = 2.77297e-09, No Iterations 3
DILUPBiCGStab:  Solving for h, Initial residual = 0.00426503, Final residual = 3.23829e-09, No Iterations 3
min/max(T) = 299.655, 1044.97
GAMGPCG:  Solving for p_rgh, Initial residual = 0.021818, Final residual = 5.4812e-07, No Iterations 4
diagonal:  Solving for rho, Initial residual = 0, Final residual = 0, No Iterations 0
time step continuity errors : sum local = 3.11691e-08, global = 3.73819e-09, cumulative = -2.07225e-07
GAMGPCG:  Solving for p_rgh, Initial residual = 0.00279826, Final residual = 9.33847e-07, No Iterations 3
diagonal:  Solving for rho, Initial residual = 0, Final residual = 0, No Iterations 0
time step continuity errors : sum local = 4.99931e-08, global = 3.28459e-09, cumulative = -2.03941e-07
DILUPBiCGStab:  Solving for omega, Initial residual = 0.000133001, Final residual = 1.88905e-09, No Iterations 2
DILUPBiCGStab:  Solving for k, Initial residual = 0.00860177, Final residual = 1.45443e-09, No Iterations 3

ExecutionTime = 2.49 s  ClockTime = 3 s

    Overall     = 0.00169051, 0.01
Time = 269

diagonal:  Solving for rho, Initial residual = 0, Final residual = 0, No Iterations 0

Execution time for mesh.update() = 0 s

DILUPBiCGStab:  Solving for Ux, Initial residual = 0.00590596, Final residual = 4.91524e-09, No Iterations 3
DILUPBiCGStab:  Solving for Uy, Initial residual = 0.00834341, Final residual = 8.55326e-10, No Iterations 3
DILUPBiCGStab:  Solving for O2, Initial residual = 0.00367546, Final residual = 3.59727e-09, No Iterations 3
DILUPBiCGStab:  Solving for H2O, Initial residual = 0.0036754, Final residual = 3.59703e-09, No Iterations 3
DILUPBiCGStab:  Solving for CH4, Initial residual = 0, Final residual = 0, No Iterations 0
DILUPBiCGStab:  Solving for CO2, Initial residual = 0.0036754, Final residual = 3.59704e-09, No Iterations 3
DILUPBiCGStab:  Solving for h, Initial residual = 0.00427187, Final residual = 5.66667e-09, No Iterations 3
min/max(T) = 299.709, 1044.97
GAMGPCG:  Solving for p_rgh, Initial residual = 0.0220115, Final residual = 5.28775e-07, No Iterations 4
diagonal:  Solving for rho, Initial residual = 0, Final residual = 0, No Iterations 0
time step continuity errors : sum local = 3.02075e-08, global = 5.05909e-09, cumulative = -1.98882e-07
GAMGPCG:  Solving for p_rgh, Initial residual = 0.00282368, Final residual = 7.93523e-07, No Iterations 3
diagonal:  Solving for rho, Initial residual = 0, Final residual = 0, No Iterations 0
time step continuity errors : sum local = 4.31275e-08, global = 1.79193e-09, cumulative = -1.9709e-07
DILUPBiCGStab:  Solving for omega, Initial residual = 0.000133654, Final residual = 2.00077e-09, No Iterations 2
DILUPBiCGStab:  Solving for k, Initial residual = 0.00865209, Final residual = 1.02376e-09, No Iterations 3

ExecutionTime = 2.6 s  ClockTime = 3 s

    Overall     = 0.00169267, 0.01
Time = 270

diagonal:  Solving for rho, Initial residual = 0, Final residual = 0, No Iterations 0

Execution time for mesh.update() = 0 s

DILUPBiCGStab:  Solving for Ux, Initial residual = 0.0059436, Final residual = 5.26429e-09, No Iterations 3
DILUPBiCGStab:  Solving for Uy, Initial residual = 0.00833374, Final residual = 8.54365e-10, No Iterations 3
GAMGPCG:  Solving for G, Initial residual = 0.146511, Final residual = 4.87106e-05, No Iterations 6
DILUPBiCGStab:  Solving for O2, Initial residual = 0.00368322, Final residual = 2.54595e-09, No Iterations 3
DILUPBiCGStab:  Solving for H2O, Initial residual = 0.00368332, Final residual = 2.5459e-09, No Iterations 3
DILUPBiCGStab:  Solving for CH4, Initial residual = 0, Final residual = 0, No Iterations 0
DILUPBiCGStab:  Solving for CO2, Initial residual = 0.00368332, Final residual = 2.54591e-09, No Iterations 3
DILUPBiCGStab:  Solving for h, Initial residual = 0.00427858, Final residual = 3.20831e-09, No Iterations 3
min/max(T) = 299.648, 1044.97
GAMGPCG:  Solving for p_rgh, Initial residual = 0.0225349, Final residual = 4.94524e-07, No Iterations 4
diagonal:  Solving for rho, Initial residual = 0, Final residual = 0, No Iterations 0
time step continuity errors : sum local = 2.80846e-08, global = 3.4407e-09, cumulative = -1.93649e-07
GAMGPCG:  Solving for p_rgh, Initial residual = 0.00290384, Final residual = 8.30912e-07, No Iterations 3
diagonal:  Solving for rho, Initial residual = 0, Final residual = 0, No Iterations 0
time step continuity errors : sum local = 4.54831e-08, global = 4.46689e-09, cumulative = -1.89182e-07
DILUPBiCGStab:  Solving for omega, Initial residual = 0.000133563, Final residual = 1.92937e-09, No Iterations 2
DILUPBiCGStab:  Solving for k, Initial residual = 0.00870326, Final residual = 8.96891e-10, No Iterations 3

ExecutionTime = 2.85 s  ClockTime = 3 s

    Overall     = 0.0016753, 0.01
Time = 271

diagonal:  Solving for rho, Initial residual = 0, Final residual = 0, No Iterations 0

Execution time for mesh.update() = 0 s

DILUPBiCGStab:  Solving for Ux, Initial residual = 0.00595051, Final residual = 5.69753e-09, No Iterations 3
DILUPBiCGStab:  Solving for Uy, Initial residual = 0.00832794, Final residual = 8.1073e-10, No Iterations 3
DILUPBiCGStab:  Solving for O2, Initial residual = 0.00368254, Final residual = 2.61283e-09, No Iterations 3
DILUPBiCGStab:  Solving for H2O, Initial residual = 0.00368247, Final residual = 2.61277e-09, No Iterations 3
DILUPBiCGStab:  Solving for CH4, Initial residual = 0, Final residual = 0, No Iterations 0
DILUPBiCGStab:  Solving for CO2, Initial residual = 0.00368247, Final residual = 2.61277e-09, No Iterations 3
DILUPBiCGStab:  Solving for h, Initial residual = 0.00427735, Final residual = 3.19816e-09, No Iterations 3
min/max(T) = 299.711, 1044.97
GAMGPCG:  Solving for p_rgh, Initial residual = 0.0223819, Final residual = 5.05626e-07, No Iterations 4
diagonal:  Solving for rho, Initial residual = 0, Final residual = 0, No Iterations 0
time step continuity errors : sum local = 2.85778e-08, global = 3.70971e-09, cumulative = -1.85472e-07
GAMGPCG:  Solving for p_rgh, Initial residual = 0.00285311, Final residual = 1.04637e-07, No Iterations 4
diagonal:  Solving for rho, Initial residual = 0, Final residual = 0, No Iterations 0
time step continuity errors : sum local = 5.90967e-09, global = 7.17384e-10, cumulative = -1.84755e-07
DILUPBiCGStab:  Solving for omega, Initial residual = 0.000133941, Final residual = 1.95364e-09, No Iterations 2
DILUPBiCGStab:  Solving for k, Initial residual = 0.008756, Final residual = 3.64818e-09, No Iterations 3

ExecutionTime = 2.96 s  ClockTime = 3 s

    Overall     = 0.00167568, 0.01
Time = 272

diagonal:  Solving for rho, Initial residual = 0, Final residual = 0, No Iterations 0

Execution time for mesh.update() = 0 s

DILUPBiCGStab:  Solving for Ux, Initial residual = 0.00600648, Final residual = 5.68612e-09, No Iterations 3
DILUPBiCGStab:  Solving for Uy, Initial residual = 0.00832445, Final residual = 6.69382e-09, No Iterations 3
DILUPBiCGStab:  Solving for O2, Initial residual = 0.00369051, Final residual = 2.48076e-09, No Iterations 3
DILUPBiCGStab:  Solving for H2O, Initial residual = 0.00369061, Final residual = 2.48073e-09, No Iterations 3
DILUPBiCGStab:  Solving for CH4, Initial residual = 0, Final residual = 0, No Iterations 0
DILUPBiCGStab:  Solving for CO2, Initial residual = 0.0036906, Final residual = 2.48073e-09, No Iterations 3
DILUPBiCGStab:  Solving for h, Initial residual = 0.00429142, Final residual = 2.81419e-09, No Iterations 3
min/max(T) = 299.63, 1044.97
GAMGPCG:  Solving for p_rgh, Initial residual = 0.0224582, Final residual = 3.65739e-07, No Iterations 4
diagonal:  Solving for rho, Initial residual = 0, Final residual = 0, No Iterations 0
time step continuity errors : sum local = 2.05803e-08, global = 2.36586e-09, cumulative = -1.82389e-07
GAMGPCG:  Solving for p_rgh, Initial residual = 0.00300361, Final residual = 9.47459e-07, No Iterations 3
diagonal:  Solving for rho, Initial residual = 0, Final residual = 0, No Iterations 0
time step continuity errors : sum local = 5.14627e-08, global = 4.4617e-09, cumulative = -1.77927e-07
DILUPBiCGStab:  Solving for omega, Initial residual = 0.000133657, Final residual = 1.93362e-09, No Iterations 2
DILUPBiCGStab:  Solving for k, Initial residual = 0.00878673, Final residual = 2.89456e-09, No Iterations 3

ExecutionTime = 3.08 s  ClockTime = 3 s

    Overall     = 0.00165745, 0.01
Time = 273

diagonal:  Solving for rho, Initial residual = 0, Final residual = 0, No Iterations 0

Execution time for mesh.update() = 0 s

DILUPBiCGStab:  Solving for Ux, Initial residual = 0.00602186, Final residual = 5.26123e-09, No Iterations 3
DILUPBiCGStab:  Solving for Uy, Initial residual = 0.00830417, Final residual = 7.22854e-09, No Iterations 3
DILUPBiCGStab:  Solving for O2, Initial residual = 0.00369861, Final residual = 2.99582e-09, No Iterations 3
DILUPBiCGStab:  Solving for H2O, Initial residual = 0.00369854, Final residual = 2.99589e-09, No Iterations 3
DILUPBiCGStab:  Solving for CH4, Initial residual = 0, Final residual = 0, No Iterations 0
DILUPBiCGStab:  Solving for CO2, Initial residual = 0.00369854, Final residual = 2.99589e-09, No Iterations 3
DILUPBiCGStab:  Solving for h, Initial residual = 0.00429938, Final residual = 3.40745e-09, No Iterations 3
min/max(T) = 299.702, 1044.97
GAMGPCG:  Solving for p_rgh, Initial residual = 0.0225971, Final residual = 4.83004e-07, No Iterations 4
diagonal:  Solving for rho, Initial residual = 0, Final residual = 0, No Iterations 0
time step continuity errors : sum local = 2.7237e-08, global = 2.47076e-09, cumulative = -1.75457e-07
GAMGPCG:  Solving for p_rgh, Initial residual = 0.00300243, Final residual = 9.02555e-08, No Iterations 4
diagonal:  Solving for rho, Initial residual = 0, Final residual = 0, No Iterations 0
time step continuity errors : sum local = 5.02093e-09, global = 4.9394e-10, cumulative = -1.74963e-07
DILUPBiCGStab:  Solving for omega, Initial residual = 0.000134801, Final residual = 1.89294e-09, No Iterations 2
DILUPBiCGStab:  Solving for k, Initial residual = 0.00882617, Final residual = 2.87545e-11, No Iterations 4

ExecutionTime = 3.19 s  ClockTime = 4 s

    Overall     = 0.00165599, 0.01
Time = 274

diagonal:  Solving for rho, Initial residual = 0, Final residual = 0, No Iterations 0

Execution time for mesh.update() = 0 s

DILUPBiCGStab:  Solving for Ux, Initial residual = 0.00604533, Final residual = 4.88471e-09, No Iterations 3
DILUPBiCGStab:  Solving for Uy, Initial residual = 0.00828315, Final residual = 6.83247e-09, No Iterations 3
DILUPBiCGStab:  Solving for O2, Initial residual = 0.00370633, Final residual = 2.94333e-09, No Iterations 3
DILUPBiCGStab:  Solving for H2O, Initial residual = 0.00370644, Final residual = 2.94332e-09, No Iterations 3
DILUPBiCGStab:  Solving for CH4, Initial residual = 0, Final residual = 0, No Iterations 0
DILUPBiCGStab:  Solving for CO2, Initial residual = 0.00370644, Final residual = 2.94332e-09, No Iterations 3
DILUPBiCGStab:  Solving for h, Initial residual = 0.00431325, Final residual = 3.38373e-09, No Iterations 3
min/max(T) = 299.615, 1044.97
GAMGPCG:  Solving for p_rgh, Initial residual = 0.0222578, Final residual = 3.46024e-07, No Iterations 4
diagonal:  Solving for rho, Initial residual = 0, Final residual = 0, No Iterations 0
time step continuity errors : sum local = 1.91427e-08, global = 1.67824e-10, cumulative = -1.74795e-07
GAMGPCG:  Solving for p_rgh, Initial residual = 0.00302524, Final residual = 9.3228e-07, No Iterations 3
diagonal:  Solving for rho, Initial residual = 0, Final residual = 0, No Iterations 0
time step continuity errors : sum local = 5.09747e-08, global = 4.92056e-09, cumulative = -1.69874e-07
DILUPBiCGStab:  Solving for omega, Initial residual = 0.000135691, Final residual = 2.04016e-09, No Iterations 2
DILUPBiCGStab:  Solving for k, Initial residual = 0.00889416, Final residual = 3.43623e-09, No Iterations 3

ExecutionTime = 3.31 s  ClockTime = 4 s

    Overall     = 0.0016348, 0.01
Time = 275

diagonal:  Solving for rho, Initial residual = 0, Final residual = 0, No Iterations 0

Execution time for mesh.update() = 0 s

DILUPBiCGStab:  Solving for Ux, Initial residual = 0.00605878, Final residual = 5.83957e-09, No Iterations 3
DILUPBiCGStab:  Solving for Uy, Initial residual = 0.00825241, Final residual = 6.87236e-09, No Iterations 3
DILUPBiCGStab:  Solving for O2, Initial residual = 0.00371321, Final residual = 3.05637e-09, No Iterations 3
DILUPBiCGStab:  Solving for H2O, Initial residual = 0.00371314, Final residual = 3.05657e-09, No Iterations 3
DILUPBiCGStab:  Solving for CH4, Initial residual = 0, Final residual = 0, No Iterations 0
DILUPBiCGStab:  Solving for CO2, Initial residual = 0.00371314, Final residual = 3.05657e-09, No Iterations 3
DILUPBiCGStab:  Solving for h, Initial residual = 0.00432645, Final residual = 3.47582e-09, No Iterations 3
min/max(T) = 299.7, 1044.97
GAMGPCG:  Solving for p_rgh, Initial residual = 0.0225387, Final residual = 5.26344e-07, No Iterations 4
diagonal:  Solving for rho, Initial residual = 0, Final residual = 0, No Iterations 0
time step continuity errors : sum local = 2.97971e-08, global = -2.23456e-09, cumulative = -1.72109e-07
GAMGPCG:  Solving for p_rgh, Initial residual = 0.00305149, Final residual = 8.46402e-07, No Iterations 3
diagonal:  Solving for rho, Initial residual = 0, Final residual = 0, No Iterations 0
time step continuity errors : sum local = 4.66404e-08, global = 4.01457e-09, cumulative = -1.68094e-07
DILUPBiCGStab:  Solving for omega, Initial residual = 0.000136166, Final residual = 1.93852e-09, No Iterations 2
DILUPBiCGStab:  Solving for k, Initial residual = 0.0089364, Final residual = 9.14974e-10, No Iterations 3

ExecutionTime = 3.42 s  ClockTime = 4 s

    Overall     = 0.00163057, 0.01
Time = 276

diagonal:  Solving for rho, Initial residual = 0, Final residual = 0, No Iterations 0

Execution time for mesh.update() = 0 s

DILUPBiCGStab:  Solving for Ux, Initial residual = 0.00610179, Final residual = 6.42884e-09, No Iterations 3
DILUPBiCGStab:  Solving for Uy, Initial residual = 0.00824965, Final residual = 6.85977e-09, No Iterations 3
DILUPBiCGStab:  Solving for O2, Initial residual = 0.00372403, Final residual = 3.99819e-09, No Iterations 3
DILUPBiCGStab:  Solving for H2O, Initial residual = 0.00372415, Final residual = 3.99819e-09, No Iterations 3
DILUPBiCGStab:  Solving for CH4, Initial residual = 0, Final residual = 0, No Iterations 0
DILUPBiCGStab:  Solving for CO2, Initial residual = 0.00372415, Final residual = 3.99818e-09, No Iterations 3
DILUPBiCGStab:  Solving for h, Initial residual = 0.00433718, Final residual = 4.10199e-09, No Iterations 3
min/max(T) = 299.593, 1044.97
GAMGPCG:  Solving for p_rgh, Initial residual = 0.0224517, Final residual = 3.92436e-07, No Iterations 4
diagonal:  Solving for rho, Initial residual = 0, Final residual = 0, No Iterations 0
time step continuity errors : sum local = 2.1677e-08, global = -2.12178e-09, cumulative = -1.70216e-07
GAMGPCG:  Solving for p_rgh, Initial residual = 0.00317611, Final residual = 8.06567e-07, No Iterations 3
diagonal:  Solving for rho, Initial residual = 0, Final residual = 0, No Iterations 0
time step continuity errors : sum local = 4.3954e-08, global = 5.79334e-09, cumulative = -1.64423e-07
DILUPBiCGStab:  Solving for omega, Initial residual = 0.000136614, Final residual = 1.90098e-09, No Iterations 2
DILUPBiCGStab:  Solving for k, Initial residual = 0.00896879, Final residual = 1.10925e-09, No Iterations 3

ExecutionTime = 3.54 s  ClockTime = 4 s

    Overall     = 0.00160913, 0.01
Time = 277

diagonal:  Solving for rho, Initial residual = 0, Final residual = 0, No Iterations 0

Execution time for mesh.update() = 0 s

DILUPBiCGStab:  Solving for Ux, Initial residual = 0.00611145, Final residual = 7.2724e-09, No Iterations 3
DILUPBiCGStab:  Solving for Uy, Initial residual = 0.00820457, Final residual = 6.60145e-09, No Iterations 3
DILUPBiCGStab:  Solving for O2, Initial residual = 0.00371767, Final residual = 3.59108e-09, No Iterations 3
DILUPBiCGStab:  Solving for H2O, Initial residual = 0.00371761, Final residual = 3.59139e-09, No Iterations 3
DILUPBiCGStab:  Solving for CH4, Initial residual = 0, Final residual = 0, No Iterations 0
DILUPBiCGStab:  Solving for CO2, Initial residual = 0.00371761, Final residual = 3.59139e-09, No Iterations 3
DILUPBiCGStab:  Solving for h, Initial residual = 0.00433483, Final residual = 4.00459e-09, No Iterations 3
min/max(T) = 299.717, 1044.97
GAMGPCG:  Solving for p_rgh, Initial residual = 0.0228016, Final residual = 5.61197e-07, No Iterations 4
diagonal:  Solving for rho, Initial residual = 0, Final residual = 0, No Iterations 0
time step continuity errors : sum local = 3.16746e-08, global = -3.35781e-09, cumulative = -1.67781e-07
GAMGPCG:  Solving for p_rgh, Initial residual = 0.00312948, Final residual = 7.80751e-07, No Iterations 3
diagonal:  Solving for rho, Initial residual = 0, Final residual = 0, No Iterations 0
time step continuity errors : sum local = 4.30046e-08, global = 4.52209e-09, cumulative = -1.63259e-07
DILUPBiCGStab:  Solving for omega, Initial residual = 0.000136316, Final residual = 1.67895e-09, No Iterations 2
DILUPBiCGStab:  Solving for k, Initial residual = 0.00900481, Final residual = 1.0429e-09, No Iterations 3

ExecutionTime = 3.65 s  ClockTime = 4 s

    Overall     = 0.00160383, 0.01
Time = 278

diagonal:  Solving for rho, Initial residual = 0, Final residual = 0, No Iterations 0

Execution time for mesh.update() = 0 s

DILUPBiCGStab:  Solving for Ux, Initial residual = 0.00613964, Final residual = 6.42399e-09, No Iterations 3
DILUPBiCGStab:  Solving for Uy, Initial residual = 0.00818123, Final residual = 6.55126e-09, No Iterations 3
DILUPBiCGStab:  Solving for O2, Initial residual = 0.00373355, Final residual = 3.42149e-09, No Iterations 3
DILUPBiCGStab:  Solving for H2O, Initial residual = 0.00373369, Final residual = 3.42152e-09, No Iterations 3
DILUPBiCGStab:  Solving for CH4, Initial residual = 0, Final residual = 0, No Iterations 0
DILUPBiCGStab:  Solving for CO2, Initial residual = 0.00373369, Final residual = 3.42151e-09, No Iterations 3
DILUPBiCGStab:  Solving for h, Initial residual = 0.00435627, Final residual = 4.05535e-09, No Iterations 3
min/max(T) = 299.571, 1044.97
GAMGPCG:  Solving for p_rgh, Initial residual = 0.0226436, Final residual = 3.76417e-07, No Iterations 4
diagonal:  Solving for rho, Initial residual = 0, Final residual = 0, No Iterations 0
time step continuity errors : sum local = 2.06652e-08, global = -2.89934e-09, cumulative = -1.66158e-07
GAMGPCG:  Solving for p_rgh, Initial residual = 0.00309639, Final residual = 8.24695e-07, No Iterations 3
diagonal:  Solving for rho, Initial residual = 0, Final residual = 0, No Iterations 0
time step continuity errors : sum local = 4.48043e-08, global = 5.38409e-09, cumulative = -1.60774e-07
DILUPBiCGStab:  Solving for omega, Initial residual = 0.000137091, Final residual = 1.65706e-09, No Iterations 2
DILUPBiCGStab:  Solving for k, Initial residual = 0.00903859, Final residual = 9.82763e-10, No Iterations 3

ExecutionTime = 3.76 s  ClockTime = 4 s

    Overall     = 0.00157997, 0.01
Time = 279

diagonal:  Solving for rho, Initial residual = 0, Final residual = 0, No Iterations 0

Execution time for mesh.update() = 0 s

DILUPBiCGStab:  Solving for Ux, Initial residual = 0.00614062, Final residual = 6.23376e-09, No Iterations 3
DILUPBiCGStab:  Solving for Uy, Initial residual = 0.00812084, Final residual = 6.02814e-09, No Iterations 3
DILUPBiCGStab:  Solving for O2, Initial residual = 0.00372549, Final residual = 3.15826e-09, No Iterations 3
DILUPBiCGStab:  Solving for H2O, Initial residual = 0.00372544, Final residual = 3.15855e-09, No Iterations 3
DILUPBiCGStab:  Solving for CH4, Initial residual = 0, Final residual = 0, No Iterations 0
DILUPBiCGStab:  Solving for CO2, Initial residual = 0.00372544, Final residual = 3.15855e-09, No Iterations 3
DILUPBiCGStab:  Solving for h, Initial residual = 0.0043522, Final residual = 3.64582e-09, No Iterations 3
min/max(T) = 299.721, 1044.97
GAMGPCG:  Solving for p_rgh, Initial residual = 0.0226609, Final residual = 6.31819e-07, No Iterations 4
diagonal:  Solving for rho, Initial residual = 0, Final residual = 0, No Iterations 0
time step continuity errors : sum local = 3.53929e-08, global = -4.06265e-09, cumulative = -1.64836e-07
GAMGPCG:  Solving for p_rgh, Initial residual = 0.0030681, Final residual = 8.41841e-07, No Iterations 3
diagonal:  Solving for rho, Initial residual = 0, Final residual = 0, No Iterations 0
time step continuity errors : sum local = 4.61135e-08, global = 4.87388e-09, cumulative = -1.59963e-07
DILUPBiCGStab:  Solving for omega, Initial residual = 0.00013771, Final residual = 1.59678e-09, No Iterations 2
DILUPBiCGStab:  Solving for k, Initial residual = 0.00906591, Final residual = 9.8052e-09, No Iterations 3

ExecutionTime = 3.88 s  ClockTime = 4 s

    Overall     = 0.00157297, 0.01
Time = 280

diagonal:  Solving for rho, Initial residual = 0, Final residual = 0, No Iterations 0

Execution time for mesh.update() = 0 s

DILUPBiCGStab:  Solving for Ux, Initial residual = 0.00615711, Final residual = 6.21963e-09, No Iterations 3
DILUPBiCGStab:  Solving for Uy, Initial residual = 0.00809186, Final residual = 6.12753e-09, No Iterations 3
GAMGPCG:  Solving for G, Initial residual = 0.169171, Final residual = 5.69137e-05, No Iterations 6
DILUPBiCGStab:  Solving for O2, Initial residual = 0.00373551, Final residual = 2.89618e-09, No Iterations 3
DILUPBiCGStab:  Solving for H2O, Initial residual = 0.00373566, Final residual = 2.8962e-09, No Iterations 3
DILUPBiCGStab:  Solving for CH4, Initial residual = 0, Final residual = 0, No Iterations 0
DILUPBiCGStab:  Solving for CO2, Initial residual = 0.00373566, Final residual = 2.8962e-09, No Iterations 3
DILUPBiCGStab:  Solving for h, Initial residual = 0.00436062, Final residual = 3.24543e-09, No Iterations 3
min/max(T) = 299.541, 1044.97
GAMGPCG:  Solving for p_rgh, Initial residual = 0.0224202, Final residual = 5.75733e-07, No Iterations 4
diagonal:  Solving for rho, Initial residual = 0, Final residual = 0, No Iterations 0
time step continuity errors : sum local = 3.1361e-08, global = -6.41332e-09, cumulative = -1.66376e-07
GAMGPCG:  Solving for p_rgh, Initial residual = 0.00309451, Final residual = 7.81564e-07, No Iterations 3
diagonal:  Solving for rho, Initial residual = 0, Final residual = 0, No Iterations 0
time step continuity errors : sum local = 4.19398e-08, global = 5.19785e-09, cumulative = -1.61178e-07
DILUPBiCGStab:  Solving for omega, Initial residual = 0.000138184, Final residual = 1.6369e-09, No Iterations 2
DILUPBiCGStab:  Solving for k, Initial residual = 0.00906678, Final residual = 6.26559e-09, No Iterations 3

ExecutionTime = 4.13 s  ClockTime = 4 s

    Overall     = 0.0015507, 0.01
Time = 281

diagonal:  Solving for rho, Initial residual = 0, Final residual = 0, No Iterations 0

Execution time for mesh.update() = 0 s

DILUPBiCGStab:  Solving for Ux, Initial residual = 0.00616067, Final residual = 5.52597e-09, No Iterations 3
DILUPBiCGStab:  Solving for Uy, Initial residual = 0.00805943, Final residual = 5.72669e-09, No Iterations 3
DILUPBiCGStab:  Solving for O2, Initial residual = 0.00371774, Final residual = 2.66541e-09, No Iterations 3
DILUPBiCGStab:  Solving for H2O, Initial residual = 0.00371768, Final residual = 2.66559e-09, No Iterations 3
DILUPBiCGStab:  Solving for CH4, Initial residual = 0, Final residual = 0, No Iterations 0
DILUPBiCGStab:  Solving for CO2, Initial residual = 0.00371768, Final residual = 2.66558e-09, No Iterations 3
DILUPBiCGStab:  Solving for h, Initial residual = 0.00434439, Final residual = 2.90485e-09, No Iterations 3
min/max(T) = 299.721, 1044.97
GAMGPCG:  Solving for p_rgh, Initial residual = 0.0224909, Final residual = 6.32522e-07, No Iterations 4
diagonal:  Solving for rho, Initial residual = 0, Final residual = 0, No Iterations 0
time step continuity errors : sum local = 3.4965e-08, global = -2.97676e-09, cumulative = -1.64155e-07
GAMGPCG:  Solving for p_rgh, Initial residual = 0.00305012, Final residual = 8.39358e-07, No Iterations 3
diagonal:  Solving for rho, Initial residual = 0, Final residual = 0, No Iterations 0
time step continuity errors : sum local = 4.53791e-08, global = 4.89617e-09, cumulative = -1.59259e-07
DILUPBiCGStab:  Solving for omega, Initial residual = 0.000138118, Final residual = 1.56773e-09, No Iterations 2
DILUPBiCGStab:  Solving for k, Initial residual = 0.00909701, Final residual = 4.48989e-09, No Iterations 3

ExecutionTime = 4.24 s  ClockTime = 5 s

    Overall     = 0.0015446, 0.01
Time = 282

diagonal:  Solving for rho, Initial residual = 0, Final residual = 0, No Iterations 0

Execution time for mesh.update() = 0 s

DILUPBiCGStab:  Solving for Ux, Initial residual = 0.00617625, Final residual = 5.10904e-09, No Iterations 3
DILUPBiCGStab:  Solving for Uy, Initial residual = 0.00799897, Final residual = 5.89251e-09, No Iterations 3
DILUPBiCGStab:  Solving for O2, Initial residual = 0.00372187, Final residual = 2.63299e-09, No Iterations 3
DILUPBiCGStab:  Solving for H2O, Initial residual = 0.00372204, Final residual = 2.63301e-09, No Iterations 3
DILUPBiCGStab:  Solving for CH4, Initial residual = 0, Final residual = 0, No Iterations 0
DILUPBiCGStab:  Solving for CO2, Initial residual = 0.00372204, Final residual = 2.633e-09, No Iterations 3
DILUPBiCGStab:  Solving for h, Initial residual = 0.00434665, Final residual = 2.84698e-09, No Iterations 3
min/max(T) = 299.517, 1044.97
GAMGPCG:  Solving for p_rgh, Initial residual = 0.0227917, Final residual = 5.88316e-07, No Iterations 4
diagonal:  Solving for rho, Initial residual = 0, Final residual = 0, No Iterations 0
time step continuity errors : sum local = 3.19475e-08, global = -5.49734e-09, cumulative = -1.64756e-07
GAMGPCG:  Solving for p_rgh, Initial residual = 0.00305642, Final residual = 8.28312e-07, No Iterations 3
diagonal:  Solving for rho, Initial residual = 0, Final residual = 0, No Iterations 0
time step continuity errors : sum local = 4.39748e-08, global = 4.6853e-09, cumulative = -1.60071e-07
DILUPBiCGStab:  Solving for omega, Initial residual = 0.000139195, Final residual = 1.62139e-09, No Iterations 2
DILUPBiCGStab:  Solving for k, Initial residual = 0.00912967, Final residual = 3.32673e-09, No Iterations 3

ExecutionTime = 4.35 s  ClockTime = 5 s

    Overall     = 0.00152116, 0.01
Time = 283

diagonal:  Solving for rho, Initial residual = 0, Final residual = 0, No Iterations 0

Execution time for mesh.update() = 0 s

DILUPBiCGStab:  Solving for Ux, Initial residual = 0.006176, Final residual = 4.58399e-09, No Iterations 3
DILUPBiCGStab:  Solving for Uy, Initial residual = 0.00796738, Final residual = 5.67059e-09, No Iterations 3
DILUPBiCGStab:  Solving for O2, Initial residual = 0.00372347, Final residual = 2.62247e-09, No Iterations 3
DILUPBiCGStab:  Solving for H2O, Initial residual = 0.00372341, Final residual = 2.6225e-09, No Iterations 3
DILUPBiCGStab:  Solving for CH4, Initial residual = 0, Final residual = 0, No Iterations 0
DILUPBiCGStab:  Solving for CO2, Initial residual = 0.00372341, Final residual = 2.6225e-09, No Iterations 3
DILUPBiCGStab:  Solving for h, Initial residual = 0.00434585, Final residual = 2.72603e-09, No Iterations 3
min/max(T) = 299.721, 1044.97
GAMGPCG:  Solving for p_rgh, Initial residual = 0.022197, Final residual = 7.8684e-07, No Iterations 4
diagonal:  Solving for rho, Initial residual = 0, Final residual = 0, No Iterations 0
time step continuity errors : sum local = 4.33524e-08, global = -1.33752e-09, cumulative = -1.61408e-07
GAMGPCG:  Solving for p_rgh, Initial residual = 0.003142, Final residual = 8.79931e-07, No Iterations 3
diagonal:  Solving for rho, Initial residual = 0, Final residual = 0, No Iterations 0
time step continuity errors : sum local = 4.67792e-08, global = 5.42565e-09, cumulative = -1.55983e-07
DILUPBiCGStab:  Solving for omega, Initial residual = 0.00014062, Final residual = 1.60403e-09, No Iterations 2
DILUPBiCGStab:  Solving for k, Initial residual = 0.00915714, Final residual = 3.1081e-09, No Iterations 3

ExecutionTime = 4.47 s  ClockTime = 5 s

    Overall     = 0.00151812, 0.01
Time = 284

diagonal:  Solving for rho, Initial residual = 0, Final residual = 0, No Iterations 0

Execution time for mesh.update() = 0 s

DILUPBiCGStab:  Solving for Ux, Initial residual = 0.00619143, Final residual = 4.57529e-09, No Iterations 3
DILUPBiCGStab:  Solving for Uy, Initial residual = 0.00791696, Final residual = 6.23586e-09, No Iterations 3
DILUPBiCGStab:  Solving for O2, Initial residual = 0.00372063, Final residual = 2.3279e-09, No Iterations 3
DILUPBiCGStab:  Solving for H2O, Initial residual = 0.0037208, Final residual = 2.32791e-09, No Iterations 3
DILUPBiCGStab:  Solving for CH4, Initial residual = 0, Final residual = 0, No Iterations 0
DILUPBiCGStab:  Solving for CO2, Initial residual = 0.0037208, Final residual = 2.32791e-09, No Iterations 3
DILUPBiCGStab:  Solving for h, Initial residual = 0.0043452, Final residual = 2.57545e-09, No Iterations 3
min/max(T) = 299.5, 1044.97
GAMGPCG:  Solving for p_rgh, Initial residual = 0.0216728, Final residual = 8.02736e-07, No Iterations 4
diagonal:  Solving for rho, Initial residual = 0, Final residual = 0, No Iterations 0
time step continuity errors : sum local = 4.3672e-08, global = -2.39112e-09, cumulative = -1.58374e-07
GAMGPCG:  Solving for p_rgh, Initial residual = 0.00303431, Final residual = 9.80801e-07, No Iterations 3
diagonal:  Solving for rho, Initial residual = 0, Final residual = 0, No Iterations 0
time step continuity errors : sum local = 5.12029e-08, global = 4.13176e-09, cumulative = -1.54242e-07
DILUPBiCGStab:  Solving for omega, Initial residual = 0.000139817, Final residual = 1.63295e-09, No Iterations 2
DILUPBiCGStab:  Solving for k, Initial residual = 0.00918378, Final residual = 3.01957e-09, No Iterations 3

ExecutionTime = 4.58 s  ClockTime = 5 s

    Overall     = 0.00149723, 0.01
Time = 285

diagonal:  Solving for rho, Initial residual = 0, Final residual = 0, No Iterations 0

Execution time for mesh.update() = 0 s

DILUPBiCGStab:  Solving for Ux, Initial residual = 0.00618241, Final residual = 4.11093e-09, No Iterations 3
DILUPBiCGStab:  Solving for Uy, Initial residual = 0.00786155, Final residual = 5.24879e-09, No Iterations 3
DILUPBiCGStab:  Solving for O2, Initial residual = 0.00370806, Final residual = 2.33317e-09, No Iterations 3
DILUPBiCGStab:  Solving for H2O, Initial residual = 0.00370799, Final residual = 2.33317e-09, No Iterations 3
DILUPBiCGStab:  Solving for CH4, Initial residual = 0, Final residual = 0, No Iterations 0
DILUPBiCGStab:  Solving for CO2, Initial residual = 0.00370799, Final residual = 2.33317e-09, No Iterations 3
DILUPBiCGStab:  Solving for h, Initial residual = 0.0043303, Final residual = 2.44458e-09, No Iterations 3
min/max(T) = 299.723, 1044.97
GAMGPCG:  Solving for p_rgh, Initial residual = 0.0213461, Final residual = 7.75895e-07, No Iterations 4
diagonal:  Solving for rho, Initial residual = 0, Final residual = 0, No Iterations 0
time step continuity errors : sum local = 4.24238e-08, global = 4.91047e-10, cumulative = -1.53751e-07
GAMGPCG:  Solving for p_rgh, Initial residual = 0.00287616, Final residual = 9.97252e-07, No Iterations 3
diagonal:  Solving for rho, Initial residual = 0, Final residual = 0, No Iterations 0
time step continuity errors : sum local = 5.15074e-08, global = 4.14809e-09, cumulative = -1.49603e-07
DILUPBiCGStab:  Solving for omega, Initial residual = 0.000140144, Final residual = 1.62169e-09, No Iterations 2
DILUPBiCGStab:  Solving for k, Initial residual = 0.00920697, Final residual = 3.10938e-09, No Iterations 3

ExecutionTime = 4.69 s  ClockTime = 5 s

    Overall     = 0.00149998, 0.01
Time = 286

diagonal:  Solving for rho, Initial residual = 0, Final residual = 0, No Iterations 0

Execution time for mesh.update() = 0 s

DILUPBiCGStab:  Solving for Ux, Initial residual = 0.00618595, Final residual = 3.89879e-09, No Iterations 3
DILUPBiCGStab:  Solving for Uy, Initial residual = 0.00779908, Final residual = 5.11582e-09, No Iterations 3
DILUPBiCGStab:  Solving for O2, Initial residual = 0.00370734, Final residual = 2.27532e-09, No Iterations 3
DILUPBiCGStab:  Solving for H2O, Initial residual = 0.00370751, Final residual = 2.27531e-09, No Iterations 3
DILUPBiCGStab:  Solving for CH4, Initial residual = 0, Final residual = 0, No Iterations 0
DILUPBiCGStab:  Solving for CO2, Initial residual = 0.00370751, Final residual = 2.27531e-09, No Iterations 3
DILUPBiCGStab:  Solving for h, Initial residual = 0.00433629, Final residual = 2.31506e-09, No Iterations 3
min/max(T) = 299.479, 1044.97
GAMGPCG:  Solving for p_rgh, Initial residual = 0.0209806, Final residual = 6.01184e-07, No Iterations 4
diagonal:  Solving for rho, Initial residual = 0, Final residual = 0, No Iterations 0
time step continuity errors : sum local = 3.26692e-08, global = -3.62964e-09, cumulative = -1.53232e-07
GAMGPCG:  Solving for p_rgh, Initial residual = 0.00283554, Final residual = 1.09941e-07, No Iterations 4
diagonal:  Solving for rho, Initial residual = 0, Final residual = 0, No Iterations 0
time step continuity errors : sum local = 5.87122e-09, global = 8.54109e-10, cumulative = -1.52378e-07
DILUPBiCGStab:  Solving for omega, Initial residual = 0.000138861, Final residual = 1.57801e-09, No Iterations 2
bounding omega, min: -0.118886 max: 15699 average: 300.731
DILUPBiCGStab:  Solving for k, Initial residual = 0.0092217, Final residual = 3.12707e-09, No Iterations 3

ExecutionTime = 4.81 s  ClockTime = 5 s

    Overall     = 0.00147874, 0.01
Time = 287

diagonal:  Solving for rho, Initial residual = 0, Final residual = 0, No Iterations 0

Execution time for mesh.update() = 0 s

DILUPBiCGStab:  Solving for Ux, Initial residual = 0.00618651, Final residual = 3.79047e-09, No Iterations 3
DILUPBiCGStab:  Solving for Uy, Initial residual = 0.00775181, Final residual = 4.86276e-09, No Iterations 3
DILUPBiCGStab:  Solving for O2, Initial residual = 0.00369719, Final residual = 2.29995e-09, No Iterations 3
DILUPBiCGStab:  Solving for H2O, Initial residual = 0.00369768, Final residual = 2.29991e-09, No Iterations 3
DILUPBiCGStab:  Solving for CH4, Initial residual = 0, Final residual = 0, No Iterations 0
DILUPBiCGStab:  Solving for CO2, Initial residual = 0.00369768, Final residual = 2.29991e-09, No Iterations 3
DILUPBiCGStab:  Solving for h, Initial residual = 0.00432241, Final residual = 2.31556e-09, No Iterations 3
min/max(T) = 299.343, 1044.97
GAMGPCG:  Solving for p_rgh, Initial residual = 0.0209948, Final residual = 6.71843e-07, No Iterations 4
diagonal:  Solving for rho, Initial residual = 0, Final residual = 0, No Iterations 0
time step continuity errors : sum local = 3.66316e-08, global = 1.44601e-09, cumulative = -1.50932e-07
GAMGPCG:  Solving for p_rgh, Initial residual = 0.00281666, Final residual = 1.67774e-07, No Iterations 4
diagonal:  Solving for rho, Initial residual = 0, Final residual = 0, No Iterations 0
time step continuity errors : sum local = 8.89146e-09, global = 6.54643e-10, cumulative = -1.50278e-07
DILUPBiCGStab:  Solving for omega, Initial residual = 0.00013922, Final residual = 1.5151e-09, No Iterations 2
DILUPBiCGStab:  Solving for k, Initial residual = 0.00923341, Final residual = 3.10024e-09, No Iterations 3

ExecutionTime = 4.93 s  ClockTime = 5 s

    Overall     = 0.00147671, 0.01
Time = 288

diagonal:  Solving for rho, Initial residual = 0, Final residual = 0, No Iterations 0

Execution time for mesh.update() = 0 s

DILUPBiCGStab:  Solving for Ux, Initial residual = 0.00621046, Final residual = 3.43861e-09, No Iterations 3
DILUPBiCGStab:  Solving for Uy, Initial residual = 0.00771862, Final residual = 4.69314e-09, No Iterations 3
DILUPBiCGStab:  Solving for O2, Initial residual = 0.00370708, Final residual = 2.11453e-09, No Iterations 3
DILUPBiCGStab:  Solving for H2O, Initial residual = 0.0037064, Final residual = 2.11451e-09, No Iterations 3
DILUPBiCGStab:  Solving for CH4, Initial residual = 0, Final residual = 0, No Iterations 0
DILUPBiCGStab:  Solving for CO2, Initial residual = 0.0037064, Final residual = 2.11451e-09, No Iterations 3
DILUPBiCGStab:  Solving for h, Initial residual = 0.00434218, Final residual = 2.18011e-09, No Iterations 3
min/max(T) = 299.728, 1044.97
GAMGPCG:  Solving for p_rgh, Initial residual = 0.0207496, Final residual = 4.48842e-07, No Iterations 4
diagonal:  Solving for rho, Initial residual = 0, Final residual = 0, No Iterations 0
time step continuity errors : sum local = 2.48477e-08, global = -2.66784e-09, cumulative = -1.52945e-07
GAMGPCG:  Solving for p_rgh, Initial residual = 0.00280139, Final residual = 1.72817e-07, No Iterations 4
diagonal:  Solving for rho, Initial residual = 0, Final residual = 0, No Iterations 0
time step continuity errors : sum local = 9.15578e-09, global = 8.33913e-10, cumulative = -1.52112e-07
DILUPBiCGStab:  Solving for omega, Initial residual = 0.000147619, Final residual = 1.5026e-09, No Iterations 2
DILUPBiCGStab:  Solving for k, Initial residual = 0.00924108, Final residual = 4.08136e-09, No Iterations 3

ExecutionTime = 5.04 s  ClockTime = 5 s

    Overall     = 0.00150875, 0.01
Time = 289

diagonal:  Solving for rho, Initial residual = 0, Final residual = 0, No Iterations 0

Execution time for mesh.update() = 0 s

DILUPBiCGStab:  Solving for Ux, Initial residual = 0.00621942, Final residual = 3.46295e-09, No Iterations 3
DILUPBiCGStab:  Solving for Uy, Initial residual = 0.00771642, Final residual = 4.66874e-09, No Iterations 3
DILUPBiCGStab:  Solving for O2, Initial residual = 0.00371883, Final residual = 1.9677e-09, No Iterations 3
DILUPBiCGStab:  Solving for H2O, Initial residual = 0.00371901, Final residual = 1.96769e-09, No Iterations 3
DILUPBiCGStab:  Solving for CH4, Initial residual = 0, Final residual = 0, No Iterations 0
DILUPBiCGStab:  Solving for CO2, Initial residual = 0.00371901, Final residual = 1.96769e-09, No Iterations 3
DILUPBiCGStab:  Solving for h, Initial residual = 0.00436353, Final residual = 2.09474e-09, No Iterations 3
min/max(T) = 299.73, 1044.97
GAMGPCG:  Solving for p_rgh, Initial residual = 0.0209129, Final residual = 5.65733e-07, No Iterations 4
diagonal:  Solving for rho, Initial residual = 0, Final residual = 0, No Iterations 0
time step continuity errors : sum local = 3.101e-08, global = 2.23786e-10, cumulative = -1.51888e-07
GAMGPCG:  Solving for p_rgh, Initial residual = 0.00276366, Final residual = 1.96857e-07, No Iterations 4
diagonal:  Solving for rho, Initial residual = 0, Final residual = 0, No Iterations 0
time step continuity errors : sum local = 1.04359e-08, global = 1.04549e-09, cumulative = -1.50842e-07
DILUPBiCGStab:  Solving for omega, Initial residual = 0.000145601, Final residual = 1.77882e-09, No Iterations 2
DILUPBiCGStab:  Solving for k, Initial residual = 0.00922115, Final residual = 4.99575e-09, No Iterations 3

ExecutionTime = 5.16 s  ClockTime = 5 s

    Overall     = 0.00144599, 0.01
Time = 290

diagonal:  Solving for rho, Initial residual = 0, Final residual = 0, No Iterations 0

Execution time for mesh.update() = 0 s

DILUPBiCGStab:  Solving for Ux, Initial residual = 0.00621407, Final residual = 3.04269e-09, No Iterations 3
DILUPBiCGStab:  Solving for Uy, Initial residual = 0.00766144, Final residual = 4.83862e-09, No Iterations 3
GAMGPCG:  Solving for G, Initial residual = 0.204731, Final residual = 5.02142e-05, No Iterations 6
DILUPBiCGStab:  Solving for O2, Initial residual = 0.00369408, Final residual = 1.89692e-09, No Iterations 3
DILUPBiCGStab:  Solving for H2O, Initial residual = 0.0036942, Final residual = 1.89691e-09, No Iterations 3
DILUPBiCGStab:  Solving for CH4, Initial residual = 0, Final residual = 0, No Iterations 0
DILUPBiCGStab:  Solving for CO2, Initial residual = 0.0036942, Final residual = 1.89691e-09, No Iterations 3
DILUPBiCGStab:  Solving for h, Initial residual = 0.00433419, Final residual = 1.96031e-09, No Iterations 3
min/max(T) = 299.428, 1044.97
GAMGPCG:  Solving for p_rgh, Initial residual = 0.0204122, Final residual = 5.99556e-07, No Iterations 4
diagonal:  Solving for rho, Initial residual = 0, Final residual = 0, No Iterations 0
time step continuity errors : sum local = 3.27186e-08, global = -2.29583e-09, cumulative = -1.53138e-07
GAMGPCG:  Solving for p_rgh, Initial residual = 0.00278694, Final residual = 2.4035e-07, No Iterations 4
diagonal:  Solving for rho, Initial residual = 0, Final residual = 0, No Iterations 0
time step continuity errors : sum local = 1.26804e-08, global = 1.229e-09, cumulative = -1.51909e-07
DILUPBiCGStab:  Solving for omega, Initial residual = 0.000139658, Final residual = 1.42577e-09, No Iterations 2
DILUPBiCGStab:  Solving for k, Initial residual = 0.00918698, Final residual = 3.75512e-09, No Iterations 3

ExecutionTime = 5.41 s  ClockTime = 6 s

    Overall     = 0.00145146, 0.01
Time = 291

diagonal:  Solving for rho, Initial residual = 0, Final residual = 0, No Iterations 0

Execution time for mesh.update() = 0 s

DILUPBiCGStab:  Solving for Ux, Initial residual = 0.0062066, Final residual = 2.85254e-09, No Iterations 3
DILUPBiCGStab:  Solving for Uy, Initial residual = 0.0076031, Final residual = 4.73896e-09, No Iterations 3
DILUPBiCGStab:  Solving for O2, Initial residual = 0.00368552, Final residual = 1.99735e-09, No Iterations 3
DILUPBiCGStab:  Solving for H2O, Initial residual = 0.00368562, Final residual = 1.99743e-09, No Iterations 3
DILUPBiCGStab:  Solving for CH4, Initial residual = 0, Final residual = 0, No Iterations 0
DILUPBiCGStab:  Solving for CO2, Initial residual = 0.00368562, Final residual = 1.99743e-09, No Iterations 3
DILUPBiCGStab:  Solving for h, Initial residual = 0.00432582, Final residual = 2.0787e-09, No Iterations 3
min/max(T) = 299.603, 1044.97
GAMGPCG:  Solving for p_rgh, Initial residual = 0.019967, Final residual = 6.24846e-07, No Iterations 4
diagonal:  Solving for rho, Initial residual = 0, Final residual = 0, No Iterations 0
time step continuity errors : sum local = 3.4101e-08, global = 1.74407e-09, cumulative = -1.50165e-07
GAMGPCG:  Solving for p_rgh, Initial residual = 0.00271453, Final residual = 2.37831e-07, No Iterations 4
diagonal:  Solving for rho, Initial residual = 0, Final residual = 0, No Iterations 0
time step continuity errors : sum local = 1.25065e-08, global = 1.08039e-09, cumulative = -1.49085e-07
DILUPBiCGStab:  Solving for omega, Initial residual = 0.000139418, Final residual = 1.4095e-09, No Iterations 2
DILUPBiCGStab:  Solving for k, Initial residual = 0.009167, Final residual = 3.0979e-09, No Iterations 3

ExecutionTime = 5.53 s  ClockTime = 6 s

    Overall     = 0.00145017, 0.01
Time = 292

diagonal:  Solving for rho, Initial residual = 0, Final residual = 0, No Iterations 0

Execution time for mesh.update() = 0 s

DILUPBiCGStab:  Solving for Ux, Initial residual = 0.00619074, Final residual = 2.75835e-09, No Iterations 3
DILUPBiCGStab:  Solving for Uy, Initial residual = 0.00755898, Final residual = 5.0337e-09, No Iterations 3
DILUPBiCGStab:  Solving for O2, Initial residual = 0.0036791, Final residual = 2.03941e-09, No Iterations 3
DILUPBiCGStab:  Solving for H2O, Initial residual = 0.00367945, Final residual = 2.03946e-09, No Iterations 3
DILUPBiCGStab:  Solving for CH4, Initial residual = 0, Final residual = 0, No Iterations 0
DILUPBiCGStab:  Solving for CO2, Initial residual = 0.00367945, Final residual = 2.03946e-09, No Iterations 3
DILUPBiCGStab:  Solving for h, Initial residual = 0.00432653, Final residual = 2.05329e-09, No Iterations 3
min/max(T) = 299.406, 1044.97
GAMGPCG:  Solving for p_rgh, Initial residual = 0.0204827, Final residual = 6.62132e-07, No Iterations 4
diagonal:  Solving for rho, Initial residual = 0, Final residual = 0, No Iterations 0
time step continuity errors : sum local = 3.51698e-08, global = -1.06334e-09, cumulative = -1.50148e-07
GAMGPCG:  Solving for p_rgh, Initial residual = 0.00266775, Final residual = 2.36829e-07, No Iterations 4
diagonal:  Solving for rho, Initial residual = 0, Final residual = 0, No Iterations 0
time step continuity errors : sum local = 1.25648e-08, global = 1.20934e-09, cumulative = -1.48939e-07
DILUPBiCGStab:  Solving for omega, Initial residual = 0.000136472, Final residual = 1.35626e-09, No Iterations 2
DILUPBiCGStab:  Solving for k, Initial residual = 0.00916086, Final residual = 2.22811e-09, No Iterations 3

ExecutionTime = 5.65 s  ClockTime = 6 s

[...]

Execution time for mesh.update() = 0 s

DILUPBiCGStab:  Solving for Ux, Initial residual = 0.00503083, Final residual = 5.42029e-09, No Iterations 3
DILUPBiCGStab:  Solving for Uy, Initial residual = 0.00477672, Final residual = 7.15442e-09, No Iterations 3
GAMGPCG:  Solving for G, Initial residual = 0.157687, Final residual = 3.56099e-05, No Iterations 6
DILUPBiCGStab:  Solving for O2, Initial residual = 0.00173567, Final residual = 2.17793e-09, No Iterations 3
DILUPBiCGStab:  Solving for H2O, Initial residual = 0.00173567, Final residual = 2.17793e-09, No Iterations 3
DILUPBiCGStab:  Solving for CH4, Initial residual = 0, Final residual = 0, No Iterations 0
DILUPBiCGStab:  Solving for CO2, Initial residual = 0.00173567, Final residual = 2.17793e-09, No Iterations 3
DILUPBiCGStab:  Solving for h, Initial residual = 0.00192895, Final residual = 2.04003e-09, No Iterations 3
min/max(T) = 299.978, 1044.97
GAMGPCG:  Solving for p_rgh, Initial residual = 0.0169384, Final residual = 9.83717e-07, No Iterations 4
diagonal:  Solving for rho, Initial residual = 0, Final residual = 0, No Iterations 0
time step continuity errors : sum local = 3.94706e-08, global = -1.9795e-09, cumulative = 1.28022e-06
GAMGPCG:  Solving for p_rgh, Initial residual = 0.0027945, Final residual = 3.14261e-07, No Iterations 4
diagonal:  Solving for rho, Initial residual = 0, Final residual = 0, No Iterations 0
time step continuity errors : sum local = 1.2604e-08, global = 6.83332e-10, cumulative = 1.2809e-06
DILUPBiCGStab:  Solving for omega, Initial residual = 8.57802e-05, Final residual = 1.73246e-09, No Iterations 2
DILUPBiCGStab:  Solving for k, Initial residual = 0.00356709, Final residual = 1.85261e-09, No Iterations 3

ExecutionTime = 291.73 s  ClockTime = 292 s

    Overall     = 0.00126932, 0.01
Time = 2491

diagonal:  Solving for rho, Initial residual = 0, Final residual = 0, No Iterations 0

Execution time for mesh.update() = 0 s

DILUPBiCGStab:  Solving for Ux, Initial residual = 0.00505105, Final residual = 5.40669e-09, No Iterations 3
DILUPBiCGStab:  Solving for Uy, Initial residual = 0.00478975, Final residual = 6.60728e-09, No Iterations 3
DILUPBiCGStab:  Solving for O2, Initial residual = 0.00172774, Final residual = 2.61717e-09, No Iterations 3
DILUPBiCGStab:  Solving for H2O, Initial residual = 0.00172773, Final residual = 2.61717e-09, No Iterations 3
DILUPBiCGStab:  Solving for CH4, Initial residual = 0, Final residual = 0, No Iterations 0
DILUPBiCGStab:  Solving for CO2, Initial residual = 0.00172773, Final residual = 2.61717e-09, No Iterations 3
DILUPBiCGStab:  Solving for h, Initial residual = 0.00192243, Final residual = 2.26079e-09, No Iterations 3
min/max(T) = 300, 1044.97
GAMGPCG:  Solving for p_rgh, Initial residual = 0.0168227, Final residual = 9.92158e-07, No Iterations 4
diagonal:  Solving for rho, Initial residual = 0, Final residual = 0, No Iterations 0
time step continuity errors : sum local = 3.95411e-08, global = -1.69323e-09, cumulative = 1.27921e-06
GAMGPCG:  Solving for p_rgh, Initial residual = 0.00277141, Final residual = 2.89904e-07, No Iterations 4
diagonal:  Solving for rho, Initial residual = 0, Final residual = 0, No Iterations 0
time step continuity errors : sum local = 1.16028e-08, global = 1.19899e-09, cumulative = 1.28041e-06
DILUPBiCGStab:  Solving for omega, Initial residual = 8.52898e-05, Final residual = 1.81902e-09, No Iterations 2
DILUPBiCGStab:  Solving for k, Initial residual = 0.00355122, Final residual = 2.01608e-09, No Iterations 3

ExecutionTime = 291.84 s  ClockTime = 292 s

    Overall     = 0.00127061, 0.01
Time = 2492

diagonal:  Solving for rho, Initial residual = 0, Final residual = 0, No Iterations 0

Execution time for mesh.update() = 0 s

DILUPBiCGStab:  Solving for Ux, Initial residual = 0.00502791, Final residual = 4.97856e-09, No Iterations 3
DILUPBiCGStab:  Solving for Uy, Initial residual = 0.00475559, Final residual = 6.61706e-09, No Iterations 3
DILUPBiCGStab:  Solving for O2, Initial residual = 0.00172865, Final residual = 4.22093e-09, No Iterations 3
DILUPBiCGStab:  Solving for H2O, Initial residual = 0.00172864, Final residual = 4.22095e-09, No Iterations 3
DILUPBiCGStab:  Solving for CH4, Initial residual = 0, Final residual = 0, No Iterations 0
DILUPBiCGStab:  Solving for CO2, Initial residual = 0.00172864, Final residual = 4.22095e-09, No Iterations 3
DILUPBiCGStab:  Solving for h, Initial residual = 0.00192041, Final residual = 3.40456e-09, No Iterations 3
min/max(T) = 300, 1044.97
GAMGPCG:  Solving for p_rgh, Initial residual = 0.0167156, Final residual = 1.07094e-07, No Iterations 5
diagonal:  Solving for rho, Initial residual = 0, Final residual = 0, No Iterations 0
time step continuity errors : sum local = 4.45483e-09, global = -9.75984e-10, cumulative = 1.27943e-06
GAMGPCG:  Solving for p_rgh, Initial residual = 0.00274121, Final residual = 2.77612e-07, No Iterations 4
diagonal:  Solving for rho, Initial residual = 0, Final residual = 0, No Iterations 0
time step continuity errors : sum local = 1.09706e-08, global = 1.28642e-09, cumulative = 1.28072e-06
DILUPBiCGStab:  Solving for omega, Initial residual = 8.4813e-05, Final residual = 1.93195e-09, No Iterations 2
DILUPBiCGStab:  Solving for k, Initial residual = 0.00353627, Final residual = 2.07971e-09, No Iterations 3

ExecutionTime = 291.96 s  ClockTime = 292 s

    Overall     = 0.00126774, 0.01
Time = 2493

diagonal:  Solving for rho, Initial residual = 0, Final residual = 0, No Iterations 0

Execution time for mesh.update() = 0 s

DILUPBiCGStab:  Solving for Ux, Initial residual = 0.00502939, Final residual = 4.82948e-09, No Iterations 3
DILUPBiCGStab:  Solving for Uy, Initial residual = 0.00474502, Final residual = 5.37342e-09, No Iterations 3
DILUPBiCGStab:  Solving for O2, Initial residual = 0.0017231, Final residual = 3.19224e-09, No Iterations 3
DILUPBiCGStab:  Solving for H2O, Initial residual = 0.00172309, Final residual = 3.19225e-09, No Iterations 3
DILUPBiCGStab:  Solving for CH4, Initial residual = 0, Final residual = 0, No Iterations 0
DILUPBiCGStab:  Solving for CO2, Initial residual = 0.00172309, Final residual = 3.19225e-09, No Iterations 3
DILUPBiCGStab:  Solving for h, Initial residual = 0.00191292, Final residual = 2.83623e-09, No Iterations 3
min/max(T) = 300, 1044.97
GAMGPCG:  Solving for p_rgh, Initial residual = 0.0164981, Final residual = 1.02906e-07, No Iterations 5
diagonal:  Solving for rho, Initial residual = 0, Final residual = 0, No Iterations 0
time step continuity errors : sum local = 4.31905e-09, global = -1.04386e-09, cumulative = 1.27968e-06
GAMGPCG:  Solving for p_rgh, Initial residual = 0.00272816, Final residual = 2.41042e-07, No Iterations 4
diagonal:  Solving for rho, Initial residual = 0, Final residual = 0, No Iterations 0
time step continuity errors : sum local = 9.38443e-09, global = 5.77797e-10, cumulative = 1.28025e-06
DILUPBiCGStab:  Solving for omega, Initial residual = 8.45815e-05, Final residual = 1.94659e-09, No Iterations 2
DILUPBiCGStab:  Solving for k, Initial residual = 0.00352694, Final residual = 5.67793e-09, No Iterations 3

ExecutionTime = 292.08 s  ClockTime = 292 s

    Overall     = 0.0012689, 0.01
Time = 2494

diagonal:  Solving for rho, Initial residual = 0, Final residual = 0, No Iterations 0

Execution time for mesh.update() = 0 s

DILUPBiCGStab:  Solving for Ux, Initial residual = 0.00502399, Final residual = 5.18154e-09, No Iterations 3
DILUPBiCGStab:  Solving for Uy, Initial residual = 0.00472001, Final residual = 5.83995e-09, No Iterations 3
DILUPBiCGStab:  Solving for O2, Initial residual = 0.00172158, Final residual = 3.36769e-09, No Iterations 3
DILUPBiCGStab:  Solving for H2O, Initial residual = 0.00172157, Final residual = 3.36769e-09, No Iterations 3
DILUPBiCGStab:  Solving for CH4, Initial residual = 0, Final residual = 0, No Iterations 0
DILUPBiCGStab:  Solving for CO2, Initial residual = 0.00172157, Final residual = 3.36769e-09, No Iterations 3
DILUPBiCGStab:  Solving for h, Initial residual = 0.00190716, Final residual = 2.78845e-09, No Iterations 3
min/max(T) = 300, 1044.97
GAMGPCG:  Solving for p_rgh, Initial residual = 0.0163384, Final residual = 9.7106e-07, No Iterations 4
diagonal:  Solving for rho, Initial residual = 0, Final residual = 0, No Iterations 0
time step continuity errors : sum local = 3.80475e-08, global = -3.59174e-09, cumulative = 1.27666e-06
GAMGPCG:  Solving for p_rgh, Initial residual = 0.00265882, Final residual = 2.28876e-07, No Iterations 4
diagonal:  Solving for rho, Initial residual = 0, Final residual = 0, No Iterations 0
time step continuity errors : sum local = 8.85424e-09, global = 2.91962e-10, cumulative = 1.27695e-06
DILUPBiCGStab:  Solving for omega, Initial residual = 8.38665e-05, Final residual = 1.92301e-09, No Iterations 2
DILUPBiCGStab:  Solving for k, Initial residual = 0.00352779, Final residual = 8.72087e-09, No Iterations 3

ExecutionTime = 292.2 s  ClockTime = 293 s

    Overall     = 0.00126558, 0.01
Time = 2495

diagonal:  Solving for rho, Initial residual = 0, Final residual = 0, No Iterations 0

Execution time for mesh.update() = 0 s

DILUPBiCGStab:  Solving for Ux, Initial residual = 0.00501466, Final residual = 6.15252e-09, No Iterations 3
DILUPBiCGStab:  Solving for Uy, Initial residual = 0.00471044, Final residual = 5.34222e-09, No Iterations 3
DILUPBiCGStab:  Solving for O2, Initial residual = 0.00171257, Final residual = 2.77527e-09, No Iterations 3
DILUPBiCGStab:  Solving for H2O, Initial residual = 0.00171256, Final residual = 2.77527e-09, No Iterations 3
DILUPBiCGStab:  Solving for CH4, Initial residual = 0, Final residual = 0, No Iterations 0
DILUPBiCGStab:  Solving for CO2, Initial residual = 0.00171256, Final residual = 2.77527e-09, No Iterations 3
DILUPBiCGStab:  Solving for h, Initial residual = 0.00189883, Final residual = 2.62584e-09, No Iterations 3
min/max(T) = 300, 1044.97
GAMGPCG:  Solving for p_rgh, Initial residual = 0.0159866, Final residual = 9.48281e-07, No Iterations 4
diagonal:  Solving for rho, Initial residual = 0, Final residual = 0, No Iterations 0
time step continuity errors : sum local = 3.75778e-08, global = -4.4927e-09, cumulative = 1.27246e-06
GAMGPCG:  Solving for p_rgh, Initial residual = 0.00265463, Final residual = 2.13544e-07, No Iterations 4
diagonal:  Solving for rho, Initial residual = 0, Final residual = 0, No Iterations 0
time step continuity errors : sum local = 8.19108e-09, global = -2.39248e-10, cumulative = 1.27222e-06
DILUPBiCGStab:  Solving for omega, Initial residual = 8.38203e-05, Final residual = 1.85445e-09, No Iterations 2
DILUPBiCGStab:  Solving for k, Initial residual = 0.00352186, Final residual = 5.56222e-09, No Iterations 3

ExecutionTime = 292.31 s  ClockTime = 293 s

    Overall     = 0.00126658, 0.01
Time = 2496

diagonal:  Solving for rho, Initial residual = 0, Final residual = 0, No Iterations 0

Execution time for mesh.update() = 0 s

DILUPBiCGStab:  Solving for Ux, Initial residual = 0.00500854, Final residual = 6.58443e-09, No Iterations 3
DILUPBiCGStab:  Solving for Uy, Initial residual = 0.00468687, Final residual = 5.20237e-09, No Iterations 3
DILUPBiCGStab:  Solving for O2, Initial residual = 0.0017084, Final residual = 2.70108e-09, No Iterations 3
DILUPBiCGStab:  Solving for H2O, Initial residual = 0.00170839, Final residual = 2.70108e-09, No Iterations 3
DILUPBiCGStab:  Solving for CH4, Initial residual = 0, Final residual = 0, No Iterations 0
DILUPBiCGStab:  Solving for CO2, Initial residual = 0.00170839, Final residual = 2.70108e-09, No Iterations 3
DILUPBiCGStab:  Solving for h, Initial residual = 0.00189133, Final residual = 2.63031e-09, No Iterations 3
min/max(T) = 300, 1044.97
GAMGPCG:  Solving for p_rgh, Initial residual = 0.0159372, Final residual = 8.66083e-07, No Iterations 4
diagonal:  Solving for rho, Initial residual = 0, Final residual = 0, No Iterations 0
time step continuity errors : sum local = 3.4462e-08, global = -5.2893e-09, cumulative = 1.26693e-06
GAMGPCG:  Solving for p_rgh, Initial residual = 0.00260278, Final residual = 1.97884e-07, No Iterations 4
diagonal:  Solving for rho, Initial residual = 0, Final residual = 0, No Iterations 0
time step continuity errors : sum local = 7.55332e-09, global = -5.47542e-10, cumulative = 1.26639e-06
DILUPBiCGStab:  Solving for omega, Initial residual = 8.31294e-05, Final residual = 1.77426e-09, No Iterations 2
DILUPBiCGStab:  Solving for k, Initial residual = 0.0035131, Final residual = 2.40334e-09, No Iterations 3

ExecutionTime = 292.43 s  ClockTime = 293 s

    Overall     = 0.00126282, 0.01
Time = 2497

diagonal:  Solving for rho, Initial residual = 0, Final residual = 0, No Iterations 0

Execution time for mesh.update() = 0 s

DILUPBiCGStab:  Solving for Ux, Initial residual = 0.0049969, Final residual = 7.51646e-09, No Iterations 3
DILUPBiCGStab:  Solving for Uy, Initial residual = 0.00465905, Final residual = 5.03104e-09, No Iterations 3
DILUPBiCGStab:  Solving for O2, Initial residual = 0.0017017, Final residual = 2.95725e-09, No Iterations 3
DILUPBiCGStab:  Solving for H2O, Initial residual = 0.0017017, Final residual = 2.95725e-09, No Iterations 3
DILUPBiCGStab:  Solving for CH4, Initial residual = 0, Final residual = 0, No Iterations 0
DILUPBiCGStab:  Solving for CO2, Initial residual = 0.0017017, Final residual = 2.95725e-09, No Iterations 3
DILUPBiCGStab:  Solving for h, Initial residual = 0.00188572, Final residual = 2.84189e-09, No Iterations 3
min/max(T) = 300, 1044.97
GAMGPCG:  Solving for p_rgh, Initial residual = 0.0159593, Final residual = 8.45307e-07, No Iterations 4
diagonal:  Solving for rho, Initial residual = 0, Final residual = 0, No Iterations 0
time step continuity errors : sum local = 3.39009e-08, global = -5.74554e-09, cumulative = 1.26064e-06
GAMGPCG:  Solving for p_rgh, Initial residual = 0.0025748, Final residual = 1.93877e-07, No Iterations 4
diagonal:  Solving for rho, Initial residual = 0, Final residual = 0, No Iterations 0
time step continuity errors : sum local = 7.43613e-09, global = -7.86069e-10, cumulative = 1.25985e-06
DILUPBiCGStab:  Solving for omega, Initial residual = 8.32728e-05, Final residual = 1.72038e-09, No Iterations 2
DILUPBiCGStab:  Solving for k, Initial residual = 0.00351867, Final residual = 2.55192e-09, No Iterations 3

ExecutionTime = 292.54 s  ClockTime = 293 s

    Overall     = 0.00126353, 0.01
Time = 2498

diagonal:  Solving for rho, Initial residual = 0, Final residual = 0, No Iterations 0

Execution time for mesh.update() = 0 s

DILUPBiCGStab:  Solving for Ux, Initial residual = 0.00500316, Final residual = 7.93503e-09, No Iterations 3
DILUPBiCGStab:  Solving for Uy, Initial residual = 0.00464204, Final residual = 5.3297e-09, No Iterations 3
DILUPBiCGStab:  Solving for O2, Initial residual = 0.00169722, Final residual = 3.16626e-09, No Iterations 3
DILUPBiCGStab:  Solving for H2O, Initial residual = 0.00169722, Final residual = 3.16626e-09, No Iterations 3
DILUPBiCGStab:  Solving for CH4, Initial residual = 0, Final residual = 0, No Iterations 0
DILUPBiCGStab:  Solving for CO2, Initial residual = 0.00169722, Final residual = 3.16626e-09, No Iterations 3
DILUPBiCGStab:  Solving for h, Initial residual = 0.00188117, Final residual = 2.98465e-09, No Iterations 3
min/max(T) = 300, 1044.97
GAMGPCG:  Solving for p_rgh, Initial residual = 0.0160553, Final residual = 7.08059e-07, No Iterations 4
diagonal:  Solving for rho, Initial residual = 0, Final residual = 0, No Iterations 0
time step continuity errors : sum local = 2.84856e-08, global = -4.83189e-09, cumulative = 1.25502e-06
GAMGPCG:  Solving for p_rgh, Initial residual = 0.00255972, Final residual = 2.24489e-07, No Iterations 4
diagonal:  Solving for rho, Initial residual = 0, Final residual = 0, No Iterations 0
time step continuity errors : sum local = 8.70963e-09, global = -9.43871e-10, cumulative = 1.25408e-06
DILUPBiCGStab:  Solving for omega, Initial residual = 8.28185e-05, Final residual = 1.68324e-09, No Iterations 2
DILUPBiCGStab:  Solving for k, Initial residual = 0.00355061, Final residual = 2.78257e-09, No Iterations 3

ExecutionTime = 292.66 s  ClockTime = 293 s

    Overall     = 0.00125964, 0.01
Time = 2499

diagonal:  Solving for rho, Initial residual = 0, Final residual = 0, No Iterations 0

Execution time for mesh.update() = 0 s

DILUPBiCGStab:  Solving for Ux, Initial residual = 0.0050357, Final residual = 9.20667e-09, No Iterations 3
DILUPBiCGStab:  Solving for Uy, Initial residual = 0.004686, Final residual = 5.6012e-09, No Iterations 3
DILUPBiCGStab:  Solving for O2, Initial residual = 0.00169991, Final residual = 2.74739e-09, No Iterations 3
DILUPBiCGStab:  Solving for H2O, Initial residual = 0.00169991, Final residual = 2.74739e-09, No Iterations 3
DILUPBiCGStab:  Solving for CH4, Initial residual = 0, Final residual = 0, No Iterations 0
DILUPBiCGStab:  Solving for CO2, Initial residual = 0.00169991, Final residual = 2.74739e-09, No Iterations 3
DILUPBiCGStab:  Solving for h, Initial residual = 0.00187847, Final residual = 2.69164e-09, No Iterations 3
min/max(T) = 300, 1044.97
GAMGPCG:  Solving for p_rgh, Initial residual = 0.0156478, Final residual = 8.75658e-07, No Iterations 4
diagonal:  Solving for rho, Initial residual = 0, Final residual = 0, No Iterations 0
time step continuity errors : sum local = 3.49012e-08, global = -3.47374e-09, cumulative = 1.2506e-06
GAMGPCG:  Solving for p_rgh, Initial residual = 0.00255069, Final residual = 2.02345e-07, No Iterations 4
diagonal:  Solving for rho, Initial residual = 0, Final residual = 0, No Iterations 0
time step continuity errors : sum local = 7.75086e-09, global = -7.63005e-10, cumulative = 1.24984e-06
DILUPBiCGStab:  Solving for omega, Initial residual = 8.36905e-05, Final residual = 1.6465e-09, No Iterations 2
DILUPBiCGStab:  Solving for k, Initial residual = 0.00355632, Final residual = 3.03993e-09, No Iterations 3

ExecutionTime = 292.77 s  ClockTime = 293 s

    Overall     = 0.00126024, 0.01
Time = 2500

diagonal:  Solving for rho, Initial residual = 0, Final residual = 0, No Iterations 0

Execution time for mesh.update() = 0 s

DILUPBiCGStab:  Solving for Ux, Initial residual = 0.00504691, Final residual = 9.17376e-09, No Iterations 3
DILUPBiCGStab:  Solving for Uy, Initial residual = 0.00464074, Final residual = 6.17242e-09, No Iterations 3
GAMGPCG:  Solving for G, Initial residual = 0.150446, Final residual = 6.54256e-05, No Iterations 5
DILUPBiCGStab:  Solving for O2, Initial residual = 0.00169178, Final residual = 2.57345e-09, No Iterations 3
DILUPBiCGStab:  Solving for H2O, Initial residual = 0.00169178, Final residual = 2.57345e-09, No Iterations 3
DILUPBiCGStab:  Solving for CH4, Initial residual = 0, Final residual = 0, No Iterations 0
DILUPBiCGStab:  Solving for CO2, Initial residual = 0.00169178, Final residual = 2.57345e-09, No Iterations 3
DILUPBiCGStab:  Solving for h, Initial residual = 0.00187834, Final residual = 2.5536e-09, No Iterations 3
min/max(T) = 300, 1044.97
GAMGPCG:  Solving for p_rgh, Initial residual = 0.015524, Final residual = 8.6226e-07, No Iterations 4
diagonal:  Solving for rho, Initial residual = 0, Final residual = 0, No Iterations 0
time step continuity errors : sum local = 3.4069e-08, global = -4.35232e-09, cumulative = 1.24549e-06
GAMGPCG:  Solving for p_rgh, Initial residual = 0.0025264, Final residual = 1.97731e-07, No Iterations 4
diagonal:  Solving for rho, Initial residual = 0, Final residual = 0, No Iterations 0
time step continuity errors : sum local = 7.64137e-09, global = -4.58425e-10, cumulative = 1.24503e-06
DILUPBiCGStab:  Solving for omega, Initial residual = 8.24015e-05, Final residual = 1.63689e-09, No Iterations 2
DILUPBiCGStab:  Solving for k, Initial residual = 0.00356974, Final residual = 3.42739e-09, No Iterations 3

ExecutionTime = 293.03 s  ClockTime = 293 s


Patch Mean : 302.677
Patch Variance : 0.00163538
Patch Gradient : 0.187491
End
