/*---------------------------------------------------------------------------*\
  =========                 |
  \\      /  F ield         | OpenFOAM: The Open Source CFD Toolbox
   \\    /   O peration     | Website:  https://openfoam.org
    \\  /    A nd           | Version:  dev
     \\/     M anipulation  |
\*---------------------------------------------------------------------------*/
Build  : dev-cabe48fb62c1
Exec   : fireDyMFoam
Date   : Apr 15 2019
Time   : 13:17:28
Host   : "Host"
PID    : 4161
I/O    : uncollated
Case   : /home/tesla/OpenFOAM/tesla-dev/run/rollerOpt_COBYLA_NEW
nProcs : 1
sigFpe : Enabling floating point exception trapping (FOAM_SIGFPE).
fileModificationChecking : Monitoring run-time modified files using timeStampMaster (fileModificationSkew 10)
allowSystemOperations : Allowing user-supplied system call operations

// * * * * * * * * * * * * * * * * * * * * * * * * * * * * * * * * * * * * * //
Create time

--> FOAM Warning : 
    From function void* Foam::dlOpen(const Foam::fileName&, bool)
    in file POSIX.C at line 1268
    dlopen error : libgroovyBC.so: cannot open shared object file: No such file or directory
--> FOAM Warning : 
    From function bool Foam::dlLibraryTable::open(const Foam::fileName&, bool)
    in file db/dynamicLibrary/dlLibraryTable/dlLibraryTable.C at line 105
    could not load "libgroovyBC.so"
Create mesh for time = 250

Selecting dynamicFvMesh dynamicRefineFvMesh
Detected 538 cells that are protected from refinement. Writing these to cellSet protectedCells.

PIMPLE: No convergence criteria found


PIMPLE: Operating solver in PISO mode


Initializing Solver

Selecting thermodynamics package 
{
    type            hePsiThermo;
    mixture         reactingMixture;
    transport       sutherland;
    thermo          janaf;
    energy          sensibleEnthalpy;
    equationOfState perfectGas;
    specie          specie;
}

Selecting chemistryReader foamChemistryReader
    elements not defined in "/home/tesla/OpenFOAM/tesla-dev/run/rollerOpt_COBYLA_NEW/constant/reactions"
Reading/calculating face flux field phi

No MRF models present

Selecting turbulence model type RAS
Selecting RAS turbulence model kOmegaSST
Selecting patchDistMethod meshWave
kOmegaSSTCoeffs
{
    delta           cubeRootVol;
    cubeRootVolCoeffs
    {
        deltaCoeff      1;
    }
    alphaK1         0.85;
    alphaK2         1;
    alphaOmega1     0.5;
    alphaOmega2     0.856;
    gamma1          0.555556;
    gamma2          0.44;
    beta1           0.075;
    beta2           0.0828;
    betaStar        0.09;
    a1              0.31;
    b1              1;
    c1              10;
    F3              false;
}

Selecting combustion model none<psiThermoCombustion>
--> FOAM Warning : 
    From function static Foam::autoPtr<T> Foam::combustionModel::New(typename CombustionModel::reactionThermo&, const Foam::compressibleTurbulenceModel&, const Foam::word&) [with CombustionModel = Foam::CombustionModel<Foam::psiReactionThermo>; typename CombustionModel::reactionThermo = Foam::psiReactionThermo]
    in file /home/tesla/OpenFOAM/OpenFOAM-dev/src/combustionModels/lnInclude/combustionModelTemplates.C at line 69
    Template parameters are no longer required when selecting a combustionModel. This information is now obtained directly from the thermodynamics. Actually selecting combustion model none.

Reading g

Reading hRef
Calculating field g.h


Reading pRef
Selecting radiationModel P1
Selecting absorptionEmissionModel greyMeanAbsorptionEmission
Selecting scatterModel none
Selecting sootModel none
Creating finite volume options from "system/fvOptions"

No finite volume options present
Using LTS

Starting time loop

Using dynamicCode for functionObject patchCalcs at line 64 in "/home/tesla/OpenFOAM/tesla-dev/run/rollerOpt_COBYLA_NEW/system/controlDict.functions.patchCalcs"
    Overall     = 0.00138026, 0.01
Time = 251

diagonal:  Solving for rho, Initial residual = 0, Final residual = 0, No Iterations 0

Execution time for mesh.update() = 0 s

DILUPBiCGStab:  Solving for Ux, Initial residual = 0.00541306, Final residual = 7.48448e-09, No Iterations 3
DILUPBiCGStab:  Solving for Uy, Initial residual = 0.00835805, Final residual = 1.19896e-09, No Iterations 3
GAMGPCG:  Solving for G, Initial residual = 0.0330742, Final residual = 4.97049e-05, No Iterations 4
DILUPBiCGStab:  Solving for O2, Initial residual = 0.00303565, Final residual = 6.99927e-09, No Iterations 3
DILUPBiCGStab:  Solving for H2O, Initial residual = 0.00303563, Final residual = 6.99951e-09, No Iterations 3
DILUPBiCGStab:  Solving for CH4, Initial residual = 0, Final residual = 0, No Iterations 0
DILUPBiCGStab:  Solving for CO2, Initial residual = 0.00303563, Final residual = 6.99943e-09, No Iterations 3
DILUPBiCGStab:  Solving for h, Initial residual = 0.00346001, Final residual = 6.86059e-09, No Iterations 3
min/max(T) = 300, 1044.97
GAMGPCG:  Solving for p_rgh, Initial residual = 0.0222534, Final residual = 8.84575e-07, No Iterations 4
diagonal:  Solving for rho, Initial residual = 0, Final residual = 0, No Iterations 0
time step continuity errors : sum local = 2.47215e-06, global = -1.57601e-07, cumulative = -1.57601e-07
GAMGPCG:  Solving for p_rgh, Initial residual = 0.00298191, Final residual = 3.08004e-07, No Iterations 4
diagonal:  Solving for rho, Initial residual = 0, Final residual = 0, No Iterations 0
time step continuity errors : sum local = 2.46697e-06, global = -1.56951e-07, cumulative = -3.14553e-07
DILUPBiCGStab:  Solving for omega, Initial residual = 0.000123866, Final residual = 1.92254e-09, No Iterations 2
DILUPBiCGStab:  Solving for k, Initial residual = 0.0055092, Final residual = 6.92023e-10, No Iterations 3

ExecutionTime = 0.37 s  ClockTime = 1 s

    Overall     = 0.00137478, 0.01
Time = 252

diagonal:  Solving for rho, Initial residual = 0, Final residual = 0, No Iterations 0

Execution time for mesh.update() = 0 s

DILUPBiCGStab:  Solving for Ux, Initial residual = 0.0053881, Final residual = 7.26174e-09, No Iterations 3
DILUPBiCGStab:  Solving for Uy, Initial residual = 0.00834209, Final residual = 1.43794e-09, No Iterations 3
DILUPBiCGStab:  Solving for O2, Initial residual = 0.00304049, Final residual = 6.72563e-09, No Iterations 3
DILUPBiCGStab:  Solving for H2O, Initial residual = 0.00304049, Final residual = 6.72583e-09, No Iterations 3
DILUPBiCGStab:  Solving for CH4, Initial residual = 0, Final residual = 0, No Iterations 0
DILUPBiCGStab:  Solving for CO2, Initial residual = 0.00304049, Final residual = 6.72578e-09, No Iterations 3
DILUPBiCGStab:  Solving for h, Initial residual = 0.00346409, Final residual = 6.89892e-09, No Iterations 3
min/max(T) = 300, 1044.97
GAMGPCG:  Solving for p_rgh, Initial residual = 0.0221375, Final residual = 8.57151e-07, No Iterations 4
diagonal:  Solving for rho, Initial residual = 0, Final residual = 0, No Iterations 0
time step continuity errors : sum local = 5.12925e-08, global = -2.80132e-10, cumulative = -3.14833e-07
GAMGPCG:  Solving for p_rgh, Initial residual = 0.00285744, Final residual = 3.2063e-07, No Iterations 4
diagonal:  Solving for rho, Initial residual = 0, Final residual = 0, No Iterations 0
time step continuity errors : sum local = 1.79275e-08, global = 1.62429e-09, cumulative = -3.13208e-07
DILUPBiCGStab:  Solving for omega, Initial residual = 0.000122848, Final residual = 1.92023e-09, No Iterations 2
DILUPBiCGStab:  Solving for k, Initial residual = 0.00552199, Final residual = 8.43229e-09, No Iterations 3

ExecutionTime = 0.49 s  ClockTime = 1 s

    Overall     = 0.00137334, 0.01
Time = 253

diagonal:  Solving for rho, Initial residual = 0, Final residual = 0, No Iterations 0

Execution time for mesh.update() = 0 s

DILUPBiCGStab:  Solving for Ux, Initial residual = 0.0053803, Final residual = 7.60611e-09, No Iterations 3
DILUPBiCGStab:  Solving for Uy, Initial residual = 0.00833746, Final residual = 1.41658e-09, No Iterations 3
DILUPBiCGStab:  Solving for O2, Initial residual = 0.00303989, Final residual = 6.64451e-09, No Iterations 3
DILUPBiCGStab:  Solving for H2O, Initial residual = 0.00303989, Final residual = 6.64463e-09, No Iterations 3
DILUPBiCGStab:  Solving for CH4, Initial residual = 0, Final residual = 0, No Iterations 0
DILUPBiCGStab:  Solving for CO2, Initial residual = 0.00303989, Final residual = 6.6446e-09, No Iterations 3
DILUPBiCGStab:  Solving for h, Initial residual = 0.00346427, Final residual = 6.88349e-09, No Iterations 3
min/max(T) = 300, 1044.97
GAMGPCG:  Solving for p_rgh, Initial residual = 0.0223352, Final residual = 7.11235e-07, No Iterations 4
diagonal:  Solving for rho, Initial residual = 0, Final residual = 0, No Iterations 0
time step continuity errors : sum local = 4.29558e-08, global = -7.33662e-10, cumulative = -3.13942e-07
GAMGPCG:  Solving for p_rgh, Initial residual = 0.00290905, Final residual = 2.40387e-07, No Iterations 4
diagonal:  Solving for rho, Initial residual = 0, Final residual = 0, No Iterations 0
time step continuity errors : sum local = 1.34062e-08, global = 1.36275e-09, cumulative = -3.12579e-07
DILUPBiCGStab:  Solving for omega, Initial residual = 0.000123758, Final residual = 2.10989e-09, No Iterations 2
DILUPBiCGStab:  Solving for k, Initial residual = 0.00553431, Final residual = 7.54748e-09, No Iterations 3

ExecutionTime = 0.6 s  ClockTime = 1 s

    Overall     = 0.00137192, 0.01
Time = 254

diagonal:  Solving for rho, Initial residual = 0, Final residual = 0, No Iterations 0

Execution time for mesh.update() = 0 s

DILUPBiCGStab:  Solving for Ux, Initial residual = 0.00536171, Final residual = 7.30353e-09, No Iterations 3
DILUPBiCGStab:  Solving for Uy, Initial residual = 0.00832927, Final residual = 1.58315e-09, No Iterations 3
DILUPBiCGStab:  Solving for O2, Initial residual = 0.00305167, Final residual = 6.50331e-09, No Iterations 3
DILUPBiCGStab:  Solving for H2O, Initial residual = 0.00305168, Final residual = 6.5034e-09, No Iterations 3
DILUPBiCGStab:  Solving for CH4, Initial residual = 0, Final residual = 0, No Iterations 0
DILUPBiCGStab:  Solving for CO2, Initial residual = 0.00305168, Final residual = 6.50337e-09, No Iterations 3
DILUPBiCGStab:  Solving for h, Initial residual = 0.00347787, Final residual = 6.9782e-09, No Iterations 3
min/max(T) = 300, 1044.97
GAMGPCG:  Solving for p_rgh, Initial residual = 0.0219666, Final residual = 8.94913e-07, No Iterations 4
diagonal:  Solving for rho, Initial residual = 0, Final residual = 0, No Iterations 0
time step continuity errors : sum local = 5.2805e-08, global = -2.41231e-09, cumulative = -3.14992e-07
GAMGPCG:  Solving for p_rgh, Initial residual = 0.00283259, Final residual = 2.75264e-07, No Iterations 4
diagonal:  Solving for rho, Initial residual = 0, Final residual = 0, No Iterations 0
time step continuity errors : sum local = 1.51405e-08, global = 1.79529e-09, cumulative = -3.13196e-07
DILUPBiCGStab:  Solving for omega, Initial residual = 0.000124934, Final residual = 2.24572e-09, No Iterations 2
DILUPBiCGStab:  Solving for k, Initial residual = 0.0055521, Final residual = 6.65214e-09, No Iterations 3

ExecutionTime = 0.72 s  ClockTime = 1 s

    Overall     = 0.00137379, 0.01
Time = 255

diagonal:  Solving for rho, Initial residual = 0, Final residual = 0, No Iterations 0

Execution time for mesh.update() = 0 s

DILUPBiCGStab:  Solving for Ux, Initial residual = 0.0053594, Final residual = 7.54591e-09, No Iterations 3
DILUPBiCGStab:  Solving for Uy, Initial residual = 0.00835761, Final residual = 1.44539e-09, No Iterations 3
DILUPBiCGStab:  Solving for O2, Initial residual = 0.00306606, Final residual = 6.06269e-09, No Iterations 3
DILUPBiCGStab:  Solving for H2O, Initial residual = 0.00306606, Final residual = 6.06267e-09, No Iterations 3
DILUPBiCGStab:  Solving for CH4, Initial residual = 0, Final residual = 0, No Iterations 0
DILUPBiCGStab:  Solving for CO2, Initial residual = 0.00306606, Final residual = 6.06265e-09, No Iterations 3
DILUPBiCGStab:  Solving for h, Initial residual = 0.00349584, Final residual = 6.44479e-09, No Iterations 3
min/max(T) = 300, 1044.97
GAMGPCG:  Solving for p_rgh, Initial residual = 0.0223514, Final residual = 7.4413e-07, No Iterations 4
diagonal:  Solving for rho, Initial residual = 0, Final residual = 0, No Iterations 0
time step continuity errors : sum local = 4.46285e-08, global = 2.56356e-10, cumulative = -3.1294e-07
GAMGPCG:  Solving for p_rgh, Initial residual = 0.00288851, Final residual = 2.14221e-07, No Iterations 4
diagonal:  Solving for rho, Initial residual = 0, Final residual = 0, No Iterations 0
time step continuity errors : sum local = 1.19224e-08, global = 1.367e-09, cumulative = -3.11573e-07
DILUPBiCGStab:  Solving for omega, Initial residual = 0.000124898, Final residual = 2.4437e-09, No Iterations 2
DILUPBiCGStab:  Solving for k, Initial residual = 0.00556718, Final residual = 6.91708e-09, No Iterations 3

ExecutionTime = 0.83 s  ClockTime = 1 s

    Overall     = 0.00137473, 0.01
Time = 256

diagonal:  Solving for rho, Initial residual = 0, Final residual = 0, No Iterations 0

Execution time for mesh.update() = 0 s

DILUPBiCGStab:  Solving for Ux, Initial residual = 0.00535751, Final residual = 7.78691e-09, No Iterations 3
DILUPBiCGStab:  Solving for Uy, Initial residual = 0.00836883, Final residual = 1.27892e-09, No Iterations 3
DILUPBiCGStab:  Solving for O2, Initial residual = 0.0030712, Final residual = 5.51018e-09, No Iterations 3
DILUPBiCGStab:  Solving for H2O, Initial residual = 0.0030712, Final residual = 5.51016e-09, No Iterations 3
DILUPBiCGStab:  Solving for CH4, Initial residual = 0, Final residual = 0, No Iterations 0
DILUPBiCGStab:  Solving for CO2, Initial residual = 0.0030712, Final residual = 5.51016e-09, No Iterations 3
DILUPBiCGStab:  Solving for h, Initial residual = 0.0035015, Final residual = 5.63963e-09, No Iterations 3
min/max(T) = 300, 1044.97
GAMGPCG:  Solving for p_rgh, Initial residual = 0.0221956, Final residual = 1.3007e-07, No Iterations 5
diagonal:  Solving for rho, Initial residual = 0, Final residual = 0, No Iterations 0
time step continuity errors : sum local = 7.65868e-09, global = 7.66503e-10, cumulative = -3.10806e-07
GAMGPCG:  Solving for p_rgh, Initial residual = 0.00286152, Final residual = 2.10888e-07, No Iterations 4
diagonal:  Solving for rho, Initial residual = 0, Final residual = 0, No Iterations 0
time step continuity errors : sum local = 1.1705e-08, global = 1.73346e-09, cumulative = -3.09073e-07
DILUPBiCGStab:  Solving for omega, Initial residual = 0.000124744, Final residual = 2.51346e-09, No Iterations 2
DILUPBiCGStab:  Solving for k, Initial residual = 0.00557014, Final residual = 6.83012e-09, No Iterations 3

ExecutionTime = 0.95 s  ClockTime = 1 s

    Overall     = 0.00137936, 0.01
Time = 257

diagonal:  Solving for rho, Initial residual = 0, Final residual = 0, No Iterations 0

Execution time for mesh.update() = 0 s

DILUPBiCGStab:  Solving for Ux, Initial residual = 0.00535678, Final residual = 7.71209e-09, No Iterations 3
DILUPBiCGStab:  Solving for Uy, Initial residual = 0.0083943, Final residual = 1.28387e-09, No Iterations 3
DILUPBiCGStab:  Solving for O2, Initial residual = 0.00308199, Final residual = 4.25895e-09, No Iterations 3
DILUPBiCGStab:  Solving for H2O, Initial residual = 0.003082, Final residual = 4.25894e-09, No Iterations 3
DILUPBiCGStab:  Solving for CH4, Initial residual = 0, Final residual = 0, No Iterations 0
DILUPBiCGStab:  Solving for CO2, Initial residual = 0.003082, Final residual = 4.25894e-09, No Iterations 3
DILUPBiCGStab:  Solving for h, Initial residual = 0.00351825, Final residual = 4.49466e-09, No Iterations 3
min/max(T) = 300, 1044.97
GAMGPCG:  Solving for p_rgh, Initial residual = 0.0220209, Final residual = 9.4352e-07, No Iterations 4
diagonal:  Solving for rho, Initial residual = 0, Final residual = 0, No Iterations 0
time step continuity errors : sum local = 5.56025e-08, global = 9.01322e-10, cumulative = -3.08172e-07
GAMGPCG:  Solving for p_rgh, Initial residual = 0.00284331, Final residual = 1.94721e-07, No Iterations 4
diagonal:  Solving for rho, Initial residual = 0, Final residual = 0, No Iterations 0
time step continuity errors : sum local = 1.08909e-08, global = 1.40962e-09, cumulative = -3.06762e-07
DILUPBiCGStab:  Solving for omega, Initial residual = 0.000126069, Final residual = 2.73088e-09, No Iterations 2
DILUPBiCGStab:  Solving for k, Initial residual = 0.00560131, Final residual = 7.08426e-09, No Iterations 3

ExecutionTime = 1.07 s  ClockTime = 1 s

    Overall     = 0.00138248, 0.01
Time = 258

diagonal:  Solving for rho, Initial residual = 0, Final residual = 0, No Iterations 0

Execution time for mesh.update() = 0 s

DILUPBiCGStab:  Solving for Ux, Initial residual = 0.0053536, Final residual = 7.75495e-09, No Iterations 3
DILUPBiCGStab:  Solving for Uy, Initial residual = 0.00839864, Final residual = 1.197e-09, No Iterations 3
DILUPBiCGStab:  Solving for O2, Initial residual = 0.0030944, Final residual = 3.93837e-09, No Iterations 3
DILUPBiCGStab:  Solving for H2O, Initial residual = 0.00309441, Final residual = 3.93836e-09, No Iterations 3
DILUPBiCGStab:  Solving for CH4, Initial residual = 0, Final residual = 0, No Iterations 0
DILUPBiCGStab:  Solving for CO2, Initial residual = 0.00309441, Final residual = 3.93837e-09, No Iterations 3
DILUPBiCGStab:  Solving for h, Initial residual = 0.00353061, Final residual = 4.38409e-09, No Iterations 3
min/max(T) = 300, 1044.97
GAMGPCG:  Solving for p_rgh, Initial residual = 0.0226542, Final residual = 1.25502e-07, No Iterations 5
diagonal:  Solving for rho, Initial residual = 0, Final residual = 0, No Iterations 0
time step continuity errors : sum local = 7.45862e-09, global = 1.12135e-09, cumulative = -3.05641e-07
GAMGPCG:  Solving for p_rgh, Initial residual = 0.00286786, Final residual = 1.94682e-07, No Iterations 4
diagonal:  Solving for rho, Initial residual = 0, Final residual = 0, No Iterations 0
time step continuity errors : sum local = 1.08493e-08, global = 1.65466e-09, cumulative = -3.03986e-07
DILUPBiCGStab:  Solving for omega, Initial residual = 0.000124822, Final residual = 2.6494e-09, No Iterations 2
DILUPBiCGStab:  Solving for k, Initial residual = 0.00562043, Final residual = 6.33043e-09, No Iterations 3

ExecutionTime = 1.19 s  ClockTime = 1 s

    Overall     = 0.00138956, 0.01
Time = 259

diagonal:  Solving for rho, Initial residual = 0, Final residual = 0, No Iterations 0

Execution time for mesh.update() = 0 s

DILUPBiCGStab:  Solving for Ux, Initial residual = 0.00537817, Final residual = 8.15658e-09, No Iterations 3
DILUPBiCGStab:  Solving for Uy, Initial residual = 0.00844633, Final residual = 1.19724e-09, No Iterations 3
DILUPBiCGStab:  Solving for O2, Initial residual = 0.00310162, Final residual = 3.65965e-09, No Iterations 3
DILUPBiCGStab:  Solving for H2O, Initial residual = 0.00310163, Final residual = 3.65972e-09, No Iterations 3
DILUPBiCGStab:  Solving for CH4, Initial residual = 0, Final residual = 0, No Iterations 0
DILUPBiCGStab:  Solving for CO2, Initial residual = 0.00310163, Final residual = 3.65971e-09, No Iterations 3
DILUPBiCGStab:  Solving for h, Initial residual = 0.00353816, Final residual = 4.12926e-09, No Iterations 3
min/max(T) = 300, 1044.97
GAMGPCG:  Solving for p_rgh, Initial residual = 0.0224661, Final residual = 9.6091e-07, No Iterations 4
diagonal:  Solving for rho, Initial residual = 0, Final residual = 0, No Iterations 0
time step continuity errors : sum local = 5.59674e-08, global = -3.69914e-09, cumulative = -3.07685e-07
GAMGPCG:  Solving for p_rgh, Initial residual = 0.00289027, Final residual = 2.07461e-07, No Iterations 4
diagonal:  Solving for rho, Initial residual = 0, Final residual = 0, No Iterations 0
time step continuity errors : sum local = 1.162e-08, global = 1.55766e-09, cumulative = -3.06128e-07
DILUPBiCGStab:  Solving for omega, Initial residual = 0.000125334, Final residual = 2.74242e-09, No Iterations 2
DILUPBiCGStab:  Solving for k, Initial residual = 0.00563739, Final residual = 5.66305e-09, No Iterations 3

ExecutionTime = 1.3 s  ClockTime = 1 s

    Overall     = 0.00139394, 0.01
Time = 260

diagonal:  Solving for rho, Initial residual = 0, Final residual = 0, No Iterations 0

Execution time for mesh.update() = 0 s

DILUPBiCGStab:  Solving for Ux, Initial residual = 0.00538153, Final residual = 8.10875e-09, No Iterations 3
DILUPBiCGStab:  Solving for Uy, Initial residual = 0.00845391, Final residual = 1.17299e-09, No Iterations 3
GAMGPCG:  Solving for G, Initial residual = 0.137503, Final residual = 7.00326e-05, No Iterations 5
DILUPBiCGStab:  Solving for O2, Initial residual = 0.00310826, Final residual = 5.85921e-09, No Iterations 3
DILUPBiCGStab:  Solving for H2O, Initial residual = 0.00310827, Final residual = 5.85921e-09, No Iterations 3
DILUPBiCGStab:  Solving for CH4, Initial residual = 0, Final residual = 0, No Iterations 0
DILUPBiCGStab:  Solving for CO2, Initial residual = 0.00310827, Final residual = 5.85917e-09, No Iterations 3
DILUPBiCGStab:  Solving for h, Initial residual = 0.00355062, Final residual = 6.10797e-09, No Iterations 3
min/max(T) = 300, 1044.97
GAMGPCG:  Solving for p_rgh, Initial residual = 0.0227201, Final residual = 1.01833e-07, No Iterations 5
diagonal:  Solving for rho, Initial residual = 0, Final residual = 0, No Iterations 0
time step continuity errors : sum local = 5.94377e-09, global = -5.91675e-10, cumulative = -3.06719e-07
GAMGPCG:  Solving for p_rgh, Initial residual = 0.00284277, Final residual = 2.0829e-07, No Iterations 4
diagonal:  Solving for rho, Initial residual = 0, Final residual = 0, No Iterations 0
time step continuity errors : sum local = 1.16799e-08, global = 1.61803e-09, cumulative = -3.05101e-07
DILUPBiCGStab:  Solving for omega, Initial residual = 0.000124339, Final residual = 2.55088e-09, No Iterations 2
DILUPBiCGStab:  Solving for k, Initial residual = 0.00566573, Final residual = 6.484e-09, No Iterations 3

ExecutionTime = 1.55 s  ClockTime = 2 s

    Overall     = 0.00140253, 0.01
Time = 261

diagonal:  Solving for rho, Initial residual = 0, Final residual = 0, No Iterations 0

Execution time for mesh.update() = 0.01 s

DILUPBiCGStab:  Solving for Ux, Initial residual = 0.00539098, Final residual = 8.55143e-09, No Iterations 3
DILUPBiCGStab:  Solving for Uy, Initial residual = 0.00847664, Final residual = 1.19069e-09, No Iterations 3
DILUPBiCGStab:  Solving for O2, Initial residual = 0.00312561, Final residual = 3.46579e-09, No Iterations 3
DILUPBiCGStab:  Solving for H2O, Initial residual = 0.00312562, Final residual = 3.46581e-09, No Iterations 3
DILUPBiCGStab:  Solving for CH4, Initial residual = 0, Final residual = 0, No Iterations 0
DILUPBiCGStab:  Solving for CO2, Initial residual = 0.00312562, Final residual = 3.46582e-09, No Iterations 3
DILUPBiCGStab:  Solving for h, Initial residual = 0.00356739, Final residual = 4.78243e-09, No Iterations 3
min/max(T) = 300, 1044.97
GAMGPCG:  Solving for p_rgh, Initial residual = 0.0226039, Final residual = 1.51486e-07, No Iterations 5
diagonal:  Solving for rho, Initial residual = 0, Final residual = 0, No Iterations 0
time step continuity errors : sum local = 8.97814e-09, global = -5.69639e-10, cumulative = -3.05671e-07
GAMGPCG:  Solving for p_rgh, Initial residual = 0.00289303, Final residual = 2.05842e-07, No Iterations 4
diagonal:  Solving for rho, Initial residual = 0, Final residual = 0, No Iterations 0
time step continuity errors : sum local = 1.15918e-08, global = 1.53866e-09, cumulative = -3.04132e-07
DILUPBiCGStab:  Solving for omega, Initial residual = 0.000124956, Final residual = 2.37314e-09, No Iterations 2
DILUPBiCGStab:  Solving for k, Initial residual = 0.00567757, Final residual = 8.96332e-09, No Iterations 3

ExecutionTime = 1.68 s  ClockTime = 2 s

    Overall     = 0.00140782, 0.01
Time = 262

diagonal:  Solving for rho, Initial residual = 0, Final residual = 0, No Iterations 0

Execution time for mesh.update() = 0 s

DILUPBiCGStab:  Solving for Ux, Initial residual = 0.0054139, Final residual = 8.62462e-09, No Iterations 3
DILUPBiCGStab:  Solving for Uy, Initial residual = 0.00846956, Final residual = 1.16808e-09, No Iterations 3
DILUPBiCGStab:  Solving for O2, Initial residual = 0.00313795, Final residual = 2.42778e-09, No Iterations 3
DILUPBiCGStab:  Solving for H2O, Initial residual = 0.00313796, Final residual = 2.42779e-09, No Iterations 3
DILUPBiCGStab:  Solving for CH4, Initial residual = 0, Final residual = 0, No Iterations 0
DILUPBiCGStab:  Solving for CO2, Initial residual = 0.00313796, Final residual = 2.42779e-09, No Iterations 3
DILUPBiCGStab:  Solving for h, Initial residual = 0.00358458, Final residual = 2.71086e-09, No Iterations 3
min/max(T) = 300, 1044.97
GAMGPCG:  Solving for p_rgh, Initial residual = 0.02337, Final residual = 1.24033e-07, No Iterations 5
diagonal:  Solving for rho, Initial residual = 0, Final residual = 0, No Iterations 0
time step continuity errors : sum local = 7.38e-09, global = -6.47413e-10, cumulative = -3.0478e-07
GAMGPCG:  Solving for p_rgh, Initial residual = 0.00292614, Final residual = 1.82445e-07, No Iterations 4
diagonal:  Solving for rho, Initial residual = 0, Final residual = 0, No Iterations 0
time step continuity errors : sum local = 1.0125e-08, global = 1.72851e-09, cumulative = -3.03051e-07
DILUPBiCGStab:  Solving for omega, Initial residual = 0.000126131, Final residual = 2.1302e-09, No Iterations 2
DILUPBiCGStab:  Solving for k, Initial residual = 0.00568578, Final residual = 3.34469e-09, No Iterations 3

ExecutionTime = 1.8 s  ClockTime = 2 s

    Overall     = 0.00141909, 0.01
Time = 263

diagonal:  Solving for rho, Initial residual = 0, Final residual = 0, No Iterations 0

Execution time for mesh.update() = 0 s

DILUPBiCGStab:  Solving for Ux, Initial residual = 0.00543078, Final residual = 8.30853e-09, No Iterations 3
DILUPBiCGStab:  Solving for Uy, Initial residual = 0.00851456, Final residual = 1.07281e-09, No Iterations 3
DILUPBiCGStab:  Solving for O2, Initial residual = 0.00314433, Final residual = 2.15064e-09, No Iterations 3
DILUPBiCGStab:  Solving for H2O, Initial residual = 0.00314434, Final residual = 2.15064e-09, No Iterations 3
DILUPBiCGStab:  Solving for CH4, Initial residual = 0, Final residual = 0, No Iterations 0
DILUPBiCGStab:  Solving for CO2, Initial residual = 0.00314434, Final residual = 2.15064e-09, No Iterations 3
DILUPBiCGStab:  Solving for h, Initial residual = 0.00358665, Final residual = 2.10701e-09, No Iterations 3
min/max(T) = 300, 1044.97
GAMGPCG:  Solving for p_rgh, Initial residual = 0.0234122, Final residual = 2.09325e-07, No Iterations 5
diagonal:  Solving for rho, Initial residual = 0, Final residual = 0, No Iterations 0
time step continuity errors : sum local = 1.24008e-08, global = -8.81553e-10, cumulative = -3.03933e-07
GAMGPCG:  Solving for p_rgh, Initial residual = 0.00300124, Final residual = 2.35454e-07, No Iterations 4
diagonal:  Solving for rho, Initial residual = 0, Final residual = 0, No Iterations 0
time step continuity errors : sum local = 1.31099e-08, global = 1.38808e-09, cumulative = -3.02545e-07
DILUPBiCGStab:  Solving for omega, Initial residual = 0.000126364, Final residual = 1.90759e-09, No Iterations 2
DILUPBiCGStab:  Solving for k, Initial residual = 0.00569809, Final residual = 1.01052e-09, No Iterations 3

ExecutionTime = 1.92 s  ClockTime = 2 s

    Overall     = 0.00142583, 0.01
Time = 264

diagonal:  Solving for rho, Initial residual = 0, Final residual = 0, No Iterations 0

Execution time for mesh.update() = 0 s

DILUPBiCGStab:  Solving for Ux, Initial residual = 0.00544396, Final residual = 6.57803e-09, No Iterations 3
DILUPBiCGStab:  Solving for Uy, Initial residual = 0.00845825, Final residual = 1.03069e-09, No Iterations 3
DILUPBiCGStab:  Solving for O2, Initial residual = 0.00315524, Final residual = 2.29564e-09, No Iterations 3
DILUPBiCGStab:  Solving for H2O, Initial residual = 0.00315525, Final residual = 2.29563e-09, No Iterations 3
DILUPBiCGStab:  Solving for CH4, Initial residual = 0, Final residual = 0, No Iterations 0
DILUPBiCGStab:  Solving for CO2, Initial residual = 0.00315525, Final residual = 2.29563e-09, No Iterations 3
DILUPBiCGStab:  Solving for h, Initial residual = 0.00360964, Final residual = 2.33757e-09, No Iterations 3
min/max(T) = 300, 1044.97
GAMGPCG:  Solving for p_rgh, Initial residual = 0.0239937, Final residual = 1.51593e-07, No Iterations 5
diagonal:  Solving for rho, Initial residual = 0, Final residual = 0, No Iterations 0
time step continuity errors : sum local = 9.03883e-09, global = -4.08994e-10, cumulative = -3.02953e-07
GAMGPCG:  Solving for p_rgh, Initial residual = 0.00294815, Final residual = 2.13988e-07, No Iterations 4
diagonal:  Solving for rho, Initial residual = 0, Final residual = 0, No Iterations 0
time step continuity errors : sum local = 1.17904e-08, global = 1.44151e-09, cumulative = -3.01512e-07
DILUPBiCGStab:  Solving for omega, Initial residual = 0.000126503, Final residual = 1.91816e-09, No Iterations 2
DILUPBiCGStab:  Solving for k, Initial residual = 0.00572179, Final residual = 2.17894e-11, No Iterations 4

ExecutionTime = 2.03 s  ClockTime = 2 s

    Overall     = 0.00143985, 0.01
Time = 265

diagonal:  Solving for rho, Initial residual = 0, Final residual = 0, No Iterations 0

Execution time for mesh.update() = 0.01 s

DILUPBiCGStab:  Solving for Ux, Initial residual = 0.00548225, Final residual = 6.62675e-09, No Iterations 3
DILUPBiCGStab:  Solving for Uy, Initial residual = 0.00852831, Final residual = 1.00114e-09, No Iterations 3
DILUPBiCGStab:  Solving for O2, Initial residual = 0.00316144, Final residual = 2.30179e-09, No Iterations 3
DILUPBiCGStab:  Solving for H2O, Initial residual = 0.00316146, Final residual = 2.30179e-09, No Iterations 3
DILUPBiCGStab:  Solving for CH4, Initial residual = 0, Final residual = 0, No Iterations 0
DILUPBiCGStab:  Solving for CO2, Initial residual = 0.00316146, Final residual = 2.30179e-09, No Iterations 3
DILUPBiCGStab:  Solving for h, Initial residual = 0.00360664, Final residual = 2.47007e-09, No Iterations 3
min/max(T) = 300, 1044.97
GAMGPCG:  Solving for p_rgh, Initial residual = 0.0236206, Final residual = 2.82165e-07, No Iterations 5
diagonal:  Solving for rho, Initial residual = 0, Final residual = 0, No Iterations 0
time step continuity errors : sum local = 1.64557e-08, global = -1.2898e-09, cumulative = -3.02802e-07
GAMGPCG:  Solving for p_rgh, Initial residual = 0.00315537, Final residual = 2.70835e-07, No Iterations 4
diagonal:  Solving for rho, Initial residual = 0, Final residual = 0, No Iterations 0
time step continuity errors : sum local = 1.51923e-08, global = 1.53188e-09, cumulative = -3.0127e-07
DILUPBiCGStab:  Solving for omega, Initial residual = 0.000126921, Final residual = 1.9375e-09, No Iterations 2
DILUPBiCGStab:  Solving for k, Initial residual = 0.00572858, Final residual = 3.77329e-09, No Iterations 3

ExecutionTime = 2.15 s  ClockTime = 2 s

    Overall     = 0.00144987, 0.01
Time = 266

diagonal:  Solving for rho, Initial residual = 0, Final residual = 0, No Iterations 0

Execution time for mesh.update() = 0 s

DILUPBiCGStab:  Solving for Ux, Initial residual = 0.0054916, Final residual = 6.92835e-09, No Iterations 3
DILUPBiCGStab:  Solving for Uy, Initial residual = 0.00848982, Final residual = 9.60085e-10, No Iterations 3
DILUPBiCGStab:  Solving for O2, Initial residual = 0.0031779, Final residual = 2.67714e-09, No Iterations 3
DILUPBiCGStab:  Solving for H2O, Initial residual = 0.00317791, Final residual = 2.67714e-09, No Iterations 3
DILUPBiCGStab:  Solving for CH4, Initial residual = 0, Final residual = 0, No Iterations 0
DILUPBiCGStab:  Solving for CO2, Initial residual = 0.00317791, Final residual = 2.67714e-09, No Iterations 3
DILUPBiCGStab:  Solving for h, Initial residual = 0.00363564, Final residual = 2.81166e-09, No Iterations 3
min/max(T) = 300, 1044.97
GAMGPCG:  Solving for p_rgh, Initial residual = 0.0248339, Final residual = 2.07638e-07, No Iterations 5
diagonal:  Solving for rho, Initial residual = 0, Final residual = 0, No Iterations 0
time step continuity errors : sum local = 1.24072e-08, global = -1.1142e-09, cumulative = -3.02384e-07
GAMGPCG:  Solving for p_rgh, Initial residual = 0.00302533, Final residual = 2.96967e-07, No Iterations 4
diagonal:  Solving for rho, Initial residual = 0, Final residual = 0, No Iterations 0
time step continuity errors : sum local = 1.6593e-08, global = 3.33835e-09, cumulative = -2.99046e-07
DILUPBiCGStab:  Solving for omega, Initial residual = 0.000127404, Final residual = 2.12774e-09, No Iterations 2
DILUPBiCGStab:  Solving for k, Initial residual = 0.00574933, Final residual = 2.3818e-09, No Iterations 3

ExecutionTime = 2.27 s  ClockTime = 2 s

    Overall     = 0.00146266, 0.01
Time = 267

diagonal:  Solving for rho, Initial residual = 0, Final residual = 0, No Iterations 0

Execution time for mesh.update() = 0 s

DILUPBiCGStab:  Solving for Ux, Initial residual = 0.00552568, Final residual = 6.60386e-09, No Iterations 3
DILUPBiCGStab:  Solving for Uy, Initial residual = 0.00855381, Final residual = 9.24547e-09, No Iterations 3
DILUPBiCGStab:  Solving for O2, Initial residual = 0.00318149, Final residual = 2.85131e-09, No Iterations 3
DILUPBiCGStab:  Solving for H2O, Initial residual = 0.00318151, Final residual = 2.85131e-09, No Iterations 3
DILUPBiCGStab:  Solving for CH4, Initial residual = 0, Final residual = 0, No Iterations 0
DILUPBiCGStab:  Solving for CO2, Initial residual = 0.00318151, Final residual = 2.85131e-09, No Iterations 3
DILUPBiCGStab:  Solving for h, Initial residual = 0.0036318, Final residual = 2.91781e-09, No Iterations 3
min/max(T) = 300, 1044.97
GAMGPCG:  Solving for p_rgh, Initial residual = 0.0242194, Final residual = 3.00261e-07, No Iterations 5
diagonal:  Solving for rho, Initial residual = 0, Final residual = 0, No Iterations 0
time step continuity errors : sum local = 1.75813e-08, global = -1.72214e-09, cumulative = -3.00768e-07
GAMGPCG:  Solving for p_rgh, Initial residual = 0.0032195, Final residual = 2.5371e-07, No Iterations 4
diagonal:  Solving for rho, Initial residual = 0, Final residual = 0, No Iterations 0
time step continuity errors : sum local = 1.43061e-08, global = 2.65376e-09, cumulative = -2.98114e-07
DILUPBiCGStab:  Solving for omega, Initial residual = 0.000127861, Final residual = 2.19986e-09, No Iterations 2
DILUPBiCGStab:  Solving for k, Initial residual = 0.0057584, Final residual = 2.85591e-09, No Iterations 3

ExecutionTime = 2.39 s  ClockTime = 3 s

    Overall     = 0.00147704, 0.01
Time = 268

diagonal:  Solving for rho, Initial residual = 0, Final residual = 0, No Iterations 0

Execution time for mesh.update() = 0 s

DILUPBiCGStab:  Solving for Ux, Initial residual = 0.00554772, Final residual = 6.69981e-09, No Iterations 3
DILUPBiCGStab:  Solving for Uy, Initial residual = 0.00854591, Final residual = 8.50579e-09, No Iterations 3
DILUPBiCGStab:  Solving for O2, Initial residual = 0.00320037, Final residual = 3.14422e-09, No Iterations 3
DILUPBiCGStab:  Solving for H2O, Initial residual = 0.00320039, Final residual = 3.14423e-09, No Iterations 3
DILUPBiCGStab:  Solving for CH4, Initial residual = 0, Final residual = 0, No Iterations 0
DILUPBiCGStab:  Solving for CO2, Initial residual = 0.00320039, Final residual = 3.14423e-09, No Iterations 3
DILUPBiCGStab:  Solving for h, Initial residual = 0.0036625, Final residual = 3.33343e-09, No Iterations 3
min/max(T) = 300, 1044.97
GAMGPCG:  Solving for p_rgh, Initial residual = 0.0250338, Final residual = 2.3996e-07, No Iterations 5
diagonal:  Solving for rho, Initial residual = 0, Final residual = 0, No Iterations 0
time step continuity errors : sum local = 1.42848e-08, global = -1.86799e-09, cumulative = -2.99982e-07
GAMGPCG:  Solving for p_rgh, Initial residual = 0.00311713, Final residual = 2.7139e-07, No Iterations 4
diagonal:  Solving for rho, Initial residual = 0, Final residual = 0, No Iterations 0
time step continuity errors : sum local = 1.49778e-08, global = 4.27526e-09, cumulative = -2.95707e-07
DILUPBiCGStab:  Solving for omega, Initial residual = 0.000129577, Final residual = 2.27548e-09, No Iterations 2
DILUPBiCGStab:  Solving for k, Initial residual = 0.00578354, Final residual = 3.47626e-09, No Iterations 3

ExecutionTime = 2.5 s  ClockTime = 3 s

    Overall     = 0.00148816, 0.01
Time = 269

diagonal:  Solving for rho, Initial residual = 0, Final residual = 0, No Iterations 0

Execution time for mesh.update() = 0 s

DILUPBiCGStab:  Solving for Ux, Initial residual = 0.00557606, Final residual = 6.22638e-09, No Iterations 3
DILUPBiCGStab:  Solving for Uy, Initial residual = 0.008597, Final residual = 7.14512e-09, No Iterations 3
DILUPBiCGStab:  Solving for O2, Initial residual = 0.00320988, Final residual = 3.1392e-09, No Iterations 3
DILUPBiCGStab:  Solving for H2O, Initial residual = 0.00320989, Final residual = 3.1392e-09, No Iterations 3
DILUPBiCGStab:  Solving for CH4, Initial residual = 0, Final residual = 0, No Iterations 0
DILUPBiCGStab:  Solving for CO2, Initial residual = 0.00320989, Final residual = 3.1392e-09, No Iterations 3
DILUPBiCGStab:  Solving for h, Initial residual = 0.00366762, Final residual = 3.44114e-09, No Iterations 3
min/max(T) = 300, 1044.97
GAMGPCG:  Solving for p_rgh, Initial residual = 0.0245564, Final residual = 2.76675e-07, No Iterations 5
diagonal:  Solving for rho, Initial residual = 0, Final residual = 0, No Iterations 0
time step continuity errors : sum local = 1.59703e-08, global = -1.29568e-09, cumulative = -2.97003e-07
GAMGPCG:  Solving for p_rgh, Initial residual = 0.00324236, Final residual = 2.39087e-07, No Iterations 4
diagonal:  Solving for rho, Initial residual = 0, Final residual = 0, No Iterations 0
time step continuity errors : sum local = 1.33623e-08, global = 2.99968e-09, cumulative = -2.94003e-07
DILUPBiCGStab:  Solving for omega, Initial residual = 0.000129884, Final residual = 2.54018e-09, No Iterations 2
DILUPBiCGStab:  Solving for k, Initial residual = 0.00579362, Final residual = 4.58225e-09, No Iterations 3

ExecutionTime = 2.62 s  ClockTime = 3 s

    Overall     = 0.00150867, 0.01
Time = 270

diagonal:  Solving for rho, Initial residual = 0, Final residual = 0, No Iterations 0

Execution time for mesh.update() = 0 s

DILUPBiCGStab:  Solving for Ux, Initial residual = 0.00560853, Final residual = 6.82028e-09, No Iterations 3
DILUPBiCGStab:  Solving for Uy, Initial residual = 0.00860117, Final residual = 6.98541e-09, No Iterations 3
GAMGPCG:  Solving for G, Initial residual = 0.183711, Final residual = 7.44503e-05, No Iterations 6
DILUPBiCGStab:  Solving for O2, Initial residual = 0.00322154, Final residual = 3.85513e-09, No Iterations 3
DILUPBiCGStab:  Solving for H2O, Initial residual = 0.00322156, Final residual = 3.85513e-09, No Iterations 3
DILUPBiCGStab:  Solving for CH4, Initial residual = 0, Final residual = 0, No Iterations 0
DILUPBiCGStab:  Solving for CO2, Initial residual = 0.00322156, Final residual = 3.85513e-09, No Iterations 3
DILUPBiCGStab:  Solving for h, Initial residual = 0.0036883, Final residual = 4.20635e-09, No Iterations 3
min/max(T) = 299.999, 1044.97
GAMGPCG:  Solving for p_rgh, Initial residual = 0.0244119, Final residual = 2.32829e-07, No Iterations 5
diagonal:  Solving for rho, Initial residual = 0, Final residual = 0, No Iterations 0
time step continuity errors : sum local = 1.36841e-08, global = -1.31101e-09, cumulative = -2.95314e-07
GAMGPCG:  Solving for p_rgh, Initial residual = 0.00314664, Final residual = 3.08757e-07, No Iterations 4
diagonal:  Solving for rho, Initial residual = 0, Final residual = 0, No Iterations 0
time step continuity errors : sum local = 1.68709e-08, global = 4.44474e-09, cumulative = -2.90869e-07
DILUPBiCGStab:  Solving for omega, Initial residual = 0.000131061, Final residual = 2.55702e-09, No Iterations 2
DILUPBiCGStab:  Solving for k, Initial residual = 0.00581419, Final residual = 3.79248e-09, No Iterations 3

ExecutionTime = 2.88 s  ClockTime = 3 s

    Overall     = 0.00151603, 0.01
Time = 271

diagonal:  Solving for rho, Initial residual = 0, Final residual = 0, No Iterations 0

Execution time for mesh.update() = 0 s

DILUPBiCGStab:  Solving for Ux, Initial residual = 0.00562671, Final residual = 5.92294e-09, No Iterations 3
DILUPBiCGStab:  Solving for Uy, Initial residual = 0.00863065, Final residual = 6.62486e-09, No Iterations 3
DILUPBiCGStab:  Solving for O2, Initial residual = 0.0032355, Final residual = 4.24716e-09, No Iterations 3
DILUPBiCGStab:  Solving for H2O, Initial residual = 0.00323552, Final residual = 4.24718e-09, No Iterations 3
DILUPBiCGStab:  Solving for CH4, Initial residual = 0, Final residual = 0, No Iterations 0
DILUPBiCGStab:  Solving for CO2, Initial residual = 0.00323552, Final residual = 4.24718e-09, No Iterations 3
DILUPBiCGStab:  Solving for h, Initial residual = 0.00369447, Final residual = 4.22559e-09, No Iterations 3
min/max(T) = 299.99, 1044.97
GAMGPCG:  Solving for p_rgh, Initial residual = 0.0251395, Final residual = 2.30543e-07, No Iterations 5
diagonal:  Solving for rho, Initial residual = 0, Final residual = 0, No Iterations 0
time step continuity errors : sum local = 1.34845e-08, global = -1.29209e-09, cumulative = -2.92161e-07
GAMGPCG:  Solving for p_rgh, Initial residual = 0.00326824, Final residual = 2.26295e-07, No Iterations 4
diagonal:  Solving for rho, Initial residual = 0, Final residual = 0, No Iterations 0
time step continuity errors : sum local = 1.24409e-08, global = 3.34177e-09, cumulative = -2.88819e-07
DILUPBiCGStab:  Solving for omega, Initial residual = 0.000131746, Final residual = 2.53668e-09, No Iterations 2
DILUPBiCGStab:  Solving for k, Initial residual = 0.00582669, Final residual = 3.74866e-09, No Iterations 3

ExecutionTime = 2.99 s  ClockTime = 3 s

    Overall     = 0.00154852, 0.01
Time = 272

diagonal:  Solving for rho, Initial residual = 0, Final residual = 0, No Iterations 0

Execution time for mesh.update() = 0 s

DILUPBiCGStab:  Solving for Ux, Initial residual = 0.00566725, Final residual = 6.85381e-09, No Iterations 3
DILUPBiCGStab:  Solving for Uy, Initial residual = 0.00863549, Final residual = 6.49081e-09, No Iterations 3
DILUPBiCGStab:  Solving for O2, Initial residual = 0.00324637, Final residual = 3.93685e-09, No Iterations 3
DILUPBiCGStab:  Solving for H2O, Initial residual = 0.0032464, Final residual = 3.93688e-09, No Iterations 3
DILUPBiCGStab:  Solving for CH4, Initial residual = 0, Final residual = 0, No Iterations 0
DILUPBiCGStab:  Solving for CO2, Initial residual = 0.0032464, Final residual = 3.93688e-09, No Iterations 3
DILUPBiCGStab:  Solving for h, Initial residual = 0.00371552, Final residual = 4.0458e-09, No Iterations 3
min/max(T) = 299.985, 1044.97
GAMGPCG:  Solving for p_rgh, Initial residual = 0.0250527, Final residual = 2.39087e-07, No Iterations 5
diagonal:  Solving for rho, Initial residual = 0, Final residual = 0, No Iterations 0
time step continuity errors : sum local = 1.41958e-08, global = -2.07125e-09, cumulative = -2.90891e-07
GAMGPCG:  Solving for p_rgh, Initial residual = 0.00315879, Final residual = 3.34419e-07, No Iterations 4
diagonal:  Solving for rho, Initial residual = 0, Final residual = 0, No Iterations 0
time step continuity errors : sum local = 1.80588e-08, global = 4.36123e-09, cumulative = -2.86529e-07
DILUPBiCGStab:  Solving for omega, Initial residual = 0.000133542, Final residual = 2.42998e-09, No Iterations 2
DILUPBiCGStab:  Solving for k, Initial residual = 0.005851, Final residual = 4.21351e-09, No Iterations 3

ExecutionTime = 3.11 s  ClockTime = 3 s

    Overall     = 0.00154069, 0.01
Time = 273

diagonal:  Solving for rho, Initial residual = 0, Final residual = 0, No Iterations 0

Execution time for mesh.update() = 0 s

DILUPBiCGStab:  Solving for Ux, Initial residual = 0.00566894, Final residual = 6.49033e-09, No Iterations 3
DILUPBiCGStab:  Solving for Uy, Initial residual = 0.00864051, Final residual = 7.23279e-09, No Iterations 3
DILUPBiCGStab:  Solving for O2, Initial residual = 0.00325627, Final residual = 4.11907e-09, No Iterations 3
DILUPBiCGStab:  Solving for H2O, Initial residual = 0.0032563, Final residual = 4.11912e-09, No Iterations 3
DILUPBiCGStab:  Solving for CH4, Initial residual = 0, Final residual = 0, No Iterations 0
DILUPBiCGStab:  Solving for CO2, Initial residual = 0.0032563, Final residual = 4.11912e-09, No Iterations 3
DILUPBiCGStab:  Solving for h, Initial residual = 0.00372753, Final residual = 4.23768e-09, No Iterations 3
min/max(T) = 299.977, 1044.97
GAMGPCG:  Solving for p_rgh, Initial residual = 0.0258818, Final residual = 2.58073e-07, No Iterations 5
diagonal:  Solving for rho, Initial residual = 0, Final residual = 0, No Iterations 0
time step continuity errors : sum local = 1.50903e-08, global = -2.78923e-09, cumulative = -2.89319e-07
GAMGPCG:  Solving for p_rgh, Initial residual = 0.00322866, Final residual = 2.87474e-07, No Iterations 4
diagonal:  Solving for rho, Initial residual = 0, Final residual = 0, No Iterations 0
time step continuity errors : sum local = 1.53559e-08, global = 3.09203e-09, cumulative = -2.86227e-07
DILUPBiCGStab:  Solving for omega, Initial residual = 0.000134088, Final residual = 2.31426e-09, No Iterations 2
DILUPBiCGStab:  Solving for k, Initial residual = 0.00584916, Final residual = 4.66845e-09, No Iterations 3

ExecutionTime = 3.23 s  ClockTime = 3 s

    Overall     = 0.00159101, 0.01
Time = 274

diagonal:  Solving for rho, Initial residual = 0, Final residual = 0, No Iterations 0

Execution time for mesh.update() = 0 s

DILUPBiCGStab:  Solving for Ux, Initial residual = 0.00574385, Final residual = 7.09752e-09, No Iterations 3
DILUPBiCGStab:  Solving for Uy, Initial residual = 0.00865774, Final residual = 7.70473e-09, No Iterations 3
DILUPBiCGStab:  Solving for O2, Initial residual = 0.0032696, Final residual = 3.50778e-09, No Iterations 3
DILUPBiCGStab:  Solving for H2O, Initial residual = 0.00326964, Final residual = 3.50784e-09, No Iterations 3
DILUPBiCGStab:  Solving for CH4, Initial residual = 0, Final residual = 0, No Iterations 0
DILUPBiCGStab:  Solving for CO2, Initial residual = 0.00326964, Final residual = 3.50784e-09, No Iterations 3
DILUPBiCGStab:  Solving for h, Initial residual = 0.00373594, Final residual = 4.23136e-09, No Iterations 3
min/max(T) = 299.964, 1044.97
GAMGPCG:  Solving for p_rgh, Initial residual = 0.0260104, Final residual = 1.98055e-07, No Iterations 5
diagonal:  Solving for rho, Initial residual = 0, Final residual = 0, No Iterations 0
time step continuity errors : sum local = 1.12743e-08, global = -1.66066e-09, cumulative = -2.87887e-07
GAMGPCG:  Solving for p_rgh, Initial residual = 0.00326767, Final residual = 2.86279e-07, No Iterations 4
diagonal:  Solving for rho, Initial residual = 0, Final residual = 0, No Iterations 0
time step continuity errors : sum local = 1.52499e-08, global = 2.62534e-09, cumulative = -2.85262e-07
DILUPBiCGStab:  Solving for omega, Initial residual = 0.000134306, Final residual = 2.14217e-09, No Iterations 2
DILUPBiCGStab:  Solving for k, Initial residual = 0.00587341, Final residual = 4.59852e-09, No Iterations 3

ExecutionTime = 3.35 s  ClockTime = 4 s

    Overall     = 0.00156963, 0.01
Time = 275

diagonal:  Solving for rho, Initial residual = 0, Final residual = 0, No Iterations 0

Execution time for mesh.update() = 0 s

DILUPBiCGStab:  Solving for Ux, Initial residual = 0.00572944, Final residual = 6.90389e-09, No Iterations 3
DILUPBiCGStab:  Solving for Uy, Initial residual = 0.00859505, Final residual = 8.35735e-09, No Iterations 3
DILUPBiCGStab:  Solving for O2, Initial residual = 0.00328573, Final residual = 4.15207e-09, No Iterations 3
DILUPBiCGStab:  Solving for H2O, Initial residual = 0.00328578, Final residual = 4.15221e-09, No Iterations 3
DILUPBiCGStab:  Solving for CH4, Initial residual = 0, Final residual = 0, No Iterations 0
DILUPBiCGStab:  Solving for CO2, Initial residual = 0.00328578, Final residual = 4.15221e-09, No Iterations 3
DILUPBiCGStab:  Solving for h, Initial residual = 0.00375673, Final residual = 4.44871e-09, No Iterations 3
min/max(T) = 299.962, 1044.97
GAMGPCG:  Solving for p_rgh, Initial residual = 0.0262617, Final residual = 2.15748e-07, No Iterations 5
diagonal:  Solving for rho, Initial residual = 0, Final residual = 0, No Iterations 0
time step continuity errors : sum local = 1.20568e-08, global = 3.12388e-10, cumulative = -2.8495e-07
GAMGPCG:  Solving for p_rgh, Initial residual = 0.00337712, Final residual = 2.83637e-07, No Iterations 4
diagonal:  Solving for rho, Initial residual = 0, Final residual = 0, No Iterations 0
time step continuity errors : sum local = 1.48118e-08, global = 3.16695e-11, cumulative = -2.84918e-07
DILUPBiCGStab:  Solving for omega, Initial residual = 0.000135086, Final residual = 2.13755e-09, No Iterations 2
DILUPBiCGStab:  Solving for k, Initial residual = 0.00587607, Final residual = 5.06788e-09, No Iterations 3

ExecutionTime = 3.46 s  ClockTime = 4 s

    Overall     = 0.00162887, 0.01
Time = 276

diagonal:  Solving for rho, Initial residual = 0, Final residual = 0, No Iterations 0

Execution time for mesh.update() = 0 s

DILUPBiCGStab:  Solving for Ux, Initial residual = 0.00580193, Final residual = 7.17995e-09, No Iterations 3
DILUPBiCGStab:  Solving for Uy, Initial residual = 0.00861171, Final residual = 8.59419e-09, No Iterations 3
DILUPBiCGStab:  Solving for O2, Initial residual = 0.00329754, Final residual = 3.54953e-09, No Iterations 3
DILUPBiCGStab:  Solving for H2O, Initial residual = 0.00329758, Final residual = 3.54966e-09, No Iterations 3
DILUPBiCGStab:  Solving for CH4, Initial residual = 0, Final residual = 0, No Iterations 0
DILUPBiCGStab:  Solving for CO2, Initial residual = 0.00329758, Final residual = 3.54966e-09, No Iterations 3
DILUPBiCGStab:  Solving for h, Initial residual = 0.00377364, Final residual = 3.96034e-09, No Iterations 3
min/max(T) = 299.938, 1044.97
GAMGPCG:  Solving for p_rgh, Initial residual = 0.0257572, Final residual = 8.82171e-07, No Iterations 4
diagonal:  Solving for rho, Initial residual = 0, Final residual = 0, No Iterations 0
time step continuity errors : sum local = 5.06091e-08, global = 4.73472e-09, cumulative = -2.80183e-07
GAMGPCG:  Solving for p_rgh, Initial residual = 0.00343403, Final residual = 3.45493e-07, No Iterations 4
diagonal:  Solving for rho, Initial residual = 0, Final residual = 0, No Iterations 0
time step continuity errors : sum local = 1.83639e-08, global = 3.60179e-09, cumulative = -2.76581e-07
DILUPBiCGStab:  Solving for omega, Initial residual = 0.000136677, Final residual = 2.00898e-09, No Iterations 2
DILUPBiCGStab:  Solving for k, Initial residual = 0.00589228, Final residual = 5.47287e-09, No Iterations 3

ExecutionTime = 3.58 s  ClockTime = 4 s

    Overall     = 0.00160832, 0.01
Time = 277

diagonal:  Solving for rho, Initial residual = 0, Final residual = 0, No Iterations 0

Execution time for mesh.update() = 0 s

DILUPBiCGStab:  Solving for Ux, Initial residual = 0.00577542, Final residual = 7.18758e-09, No Iterations 3
DILUPBiCGStab:  Solving for Uy, Initial residual = 0.00853568, Final residual = 8.58907e-09, No Iterations 3
DILUPBiCGStab:  Solving for O2, Initial residual = 0.003299, Final residual = 3.5905e-09, No Iterations 3
DILUPBiCGStab:  Solving for H2O, Initial residual = 0.00329905, Final residual = 3.59074e-09, No Iterations 3
DILUPBiCGStab:  Solving for CH4, Initial residual = 0, Final residual = 0, No Iterations 0
DILUPBiCGStab:  Solving for CO2, Initial residual = 0.00329905, Final residual = 3.59074e-09, No Iterations 3
DILUPBiCGStab:  Solving for h, Initial residual = 0.00376844, Final residual = 4.02861e-09, No Iterations 3
min/max(T) = 299.943, 1044.97
GAMGPCG:  Solving for p_rgh, Initial residual = 0.0256758, Final residual = 9.44738e-07, No Iterations 4
diagonal:  Solving for rho, Initial residual = 0, Final residual = 0, No Iterations 0
time step continuity errors : sum local = 5.24385e-08, global = 6.97299e-09, cumulative = -2.69608e-07
GAMGPCG:  Solving for p_rgh, Initial residual = 0.00344311, Final residual = 2.88312e-07, No Iterations 4
diagonal:  Solving for rho, Initial residual = 0, Final residual = 0, No Iterations 0
time step continuity errors : sum local = 1.49512e-08, global = 1.68063e-09, cumulative = -2.67928e-07
DILUPBiCGStab:  Solving for omega, Initial residual = 0.000136917, Final residual = 2.03752e-09, No Iterations 2
DILUPBiCGStab:  Solving for k, Initial residual = 0.00591691, Final residual = 5.37089e-09, No Iterations 3

ExecutionTime = 3.7 s  ClockTime = 4 s

    Overall     = 0.00166797, 0.01
Time = 278

diagonal:  Solving for rho, Initial residual = 0, Final residual = 0, No Iterations 0

Execution time for mesh.update() = 0 s

DILUPBiCGStab:  Solving for Ux, Initial residual = 0.00581283, Final residual = 6.40884e-09, No Iterations 3
DILUPBiCGStab:  Solving for Uy, Initial residual = 0.00852163, Final residual = 8.95385e-09, No Iterations 3
DILUPBiCGStab:  Solving for O2, Initial residual = 0.00330579, Final residual = 3.27542e-09, No Iterations 3
DILUPBiCGStab:  Solving for H2O, Initial residual = 0.00330584, Final residual = 3.27555e-09, No Iterations 3
DILUPBiCGStab:  Solving for CH4, Initial residual = 0, Final residual = 0, No Iterations 0
DILUPBiCGStab:  Solving for CO2, Initial residual = 0.00330584, Final residual = 3.27555e-09, No Iterations 3
DILUPBiCGStab:  Solving for h, Initial residual = 0.00378967, Final residual = 3.74914e-09, No Iterations 3
min/max(T) = 299.902, 1044.97
GAMGPCG:  Solving for p_rgh, Initial residual = 0.0258841, Final residual = 1.98297e-07, No Iterations 5
diagonal:  Solving for rho, Initial residual = 0, Final residual = 0, No Iterations 0
time step continuity errors : sum local = 1.1172e-08, global = 7.55983e-11, cumulative = -2.67852e-07
GAMGPCG:  Solving for p_rgh, Initial residual = 0.00338824, Final residual = 3.57685e-07, No Iterations 4
diagonal:  Solving for rho, Initial residual = 0, Final residual = 0, No Iterations 0
time step continuity errors : sum local = 1.93055e-08, global = 5.23255e-09, cumulative = -2.6262e-07
DILUPBiCGStab:  Solving for omega, Initial residual = 0.000137207, Final residual = 2.02044e-09, No Iterations 2
DILUPBiCGStab:  Solving for k, Initial residual = 0.0059289, Final residual = 4.48771e-09, No Iterations 3

ExecutionTime = 3.82 s  ClockTime = 4 s

    Overall     = 0.00164925, 0.01
Time = 279

diagonal:  Solving for rho, Initial residual = 0, Final residual = 0, No Iterations 0

Execution time for mesh.update() = 0 s

DILUPBiCGStab:  Solving for Ux, Initial residual = 0.00582397, Final residual = 6.07084e-09, No Iterations 3
DILUPBiCGStab:  Solving for Uy, Initial residual = 0.008522, Final residual = 9.15243e-09, No Iterations 3
DILUPBiCGStab:  Solving for O2, Initial residual = 0.00330734, Final residual = 3.3932e-09, No Iterations 3
DILUPBiCGStab:  Solving for H2O, Initial residual = 0.0033074, Final residual = 3.39339e-09, No Iterations 3
DILUPBiCGStab:  Solving for CH4, Initial residual = 0, Final residual = 0, No Iterations 0
DILUPBiCGStab:  Solving for CO2, Initial residual = 0.0033074, Final residual = 3.39339e-09, No Iterations 3
DILUPBiCGStab:  Solving for h, Initial residual = 0.00378098, Final residual = 3.80862e-09, No Iterations 3
min/max(T) = 299.915, 1044.97
GAMGPCG:  Solving for p_rgh, Initial residual = 0.0254818, Final residual = 2.41201e-07, No Iterations 5
diagonal:  Solving for rho, Initial residual = 0, Final residual = 0, No Iterations 0
time step continuity errors : sum local = 1.38652e-08, global = -7.77791e-12, cumulative = -2.62627e-07
GAMGPCG:  Solving for p_rgh, Initial residual = 0.00341532, Final residual = 3.40824e-07, No Iterations 4
diagonal:  Solving for rho, Initial residual = 0, Final residual = 0, No Iterations 0
time step continuity errors : sum local = 1.80066e-08, global = 3.91821e-09, cumulative = -2.58709e-07
DILUPBiCGStab:  Solving for omega, Initial residual = 0.000137705, Final residual = 2.05235e-09, No Iterations 2
DILUPBiCGStab:  Solving for k, Initial residual = 0.00594822, Final residual = 3.71574e-09, No Iterations 3

ExecutionTime = 3.94 s  ClockTime = 4 s

    Overall     = 0.00171067, 0.01
Time = 280

diagonal:  Solving for rho, Initial residual = 0, Final residual = 0, No Iterations 0

Execution time for mesh.update() = 0 s

DILUPBiCGStab:  Solving for Ux, Initial residual = 0.00581713, Final residual = 5.61357e-09, No Iterations 3
DILUPBiCGStab:  Solving for Uy, Initial residual = 0.00847178, Final residual = 9.69235e-09, No Iterations 3
GAMGPCG:  Solving for G, Initial residual = 0.209284, Final residual = 9.39276e-05, No Iterations 6
DILUPBiCGStab:  Solving for O2, Initial residual = 0.00331672, Final residual = 3.05011e-09, No Iterations 3
DILUPBiCGStab:  Solving for H2O, Initial residual = 0.00331679, Final residual = 3.05024e-09, No Iterations 3
DILUPBiCGStab:  Solving for CH4, Initial residual = 0, Final residual = 0, No Iterations 0
DILUPBiCGStab:  Solving for CO2, Initial residual = 0.00331679, Final residual = 3.05024e-09, No Iterations 3
DILUPBiCGStab:  Solving for h, Initial residual = 0.00379571, Final residual = 3.35275e-09, No Iterations 3
min/max(T) = 299.853, 1044.97
GAMGPCG:  Solving for p_rgh, Initial residual = 0.0250809, Final residual = 2.48759e-07, No Iterations 5
diagonal:  Solving for rho, Initial residual = 0, Final residual = 0, No Iterations 0
time step continuity errors : sum local = 1.41744e-08, global = 5.83156e-10, cumulative = -2.58126e-07
GAMGPCG:  Solving for p_rgh, Initial residual = 0.00343193, Final residual = 4.2974e-07, No Iterations 4
diagonal:  Solving for rho, Initial residual = 0, Final residual = 0, No Iterations 0
time step continuity errors : sum local = 2.30717e-08, global = 6.32087e-09, cumulative = -2.51805e-07
DILUPBiCGStab:  Solving for omega, Initial residual = 0.000137689, Final residual = 2.02794e-09, No Iterations 2
DILUPBiCGStab:  Solving for k, Initial residual = 0.00597366, Final residual = 3.5738e-09, No Iterations 3

ExecutionTime = 4.19 s  ClockTime = 4 s

    Overall     = 0.00169404, 0.01
Time = 281

diagonal:  Solving for rho, Initial residual = 0, Final residual = 0, No Iterations 0

Execution time for mesh.update() = 0 s

DILUPBiCGStab:  Solving for Ux, Initial residual = 0.00582077, Final residual = 5.69823e-09, No Iterations 3
DILUPBiCGStab:  Solving for Uy, Initial residual = 0.00843725, Final residual = 9.39676e-09, No Iterations 3
DILUPBiCGStab:  Solving for O2, Initial residual = 0.00332214, Final residual = 2.65291e-09, No Iterations 3
DILUPBiCGStab:  Solving for H2O, Initial residual = 0.00332222, Final residual = 2.65319e-09, No Iterations 3
DILUPBiCGStab:  Solving for CH4, Initial residual = 0, Final residual = 0, No Iterations 0
DILUPBiCGStab:  Solving for CO2, Initial residual = 0.00332222, Final residual = 2.65319e-09, No Iterations 3
DILUPBiCGStab:  Solving for h, Initial residual = 0.00380362, Final residual = 2.8103e-09, No Iterations 3
min/max(T) = 299.874, 1044.97
GAMGPCG:  Solving for p_rgh, Initial residual = 0.0255365, Final residual = 3.10221e-07, No Iterations 5
diagonal:  Solving for rho, Initial residual = 0, Final residual = 0, No Iterations 0
time step continuity errors : sum local = 1.74295e-08, global = -1.10984e-11, cumulative = -2.51816e-07
GAMGPCG:  Solving for p_rgh, Initial residual = 0.00343773, Final residual = 4.13814e-07, No Iterations 4
diagonal:  Solving for rho, Initial residual = 0, Final residual = 0, No Iterations 0
time step continuity errors : sum local = 2.22799e-08, global = 5.56781e-09, cumulative = -2.46248e-07
DILUPBiCGStab:  Solving for omega, Initial residual = 0.000138018, Final residual = 2.08059e-09, No Iterations 2
DILUPBiCGStab:  Solving for k, Initial residual = 0.00597959, Final residual = 3.54869e-09, No Iterations 3

ExecutionTime = 4.31 s  ClockTime = 4 s

    Overall     = 0.00175567, 0.01
Time = 282

diagonal:  Solving for rho, Initial residual = 0, Final residual = 0, No Iterations 0

Execution time for mesh.update() = 0 s

DILUPBiCGStab:  Solving for Ux, Initial residual = 0.00583797, Final residual = 5.60679e-09, No Iterations 3
DILUPBiCGStab:  Solving for Uy, Initial residual = 0.00842237, Final residual = 9.02185e-09, No Iterations 3
DILUPBiCGStab:  Solving for O2, Initial residual = 0.00332777, Final residual = 2.6196e-09, No Iterations 3
DILUPBiCGStab:  Solving for H2O, Initial residual = 0.00332787, Final residual = 2.61976e-09, No Iterations 3
DILUPBiCGStab:  Solving for CH4, Initial residual = 0, Final residual = 0, No Iterations 0
DILUPBiCGStab:  Solving for CO2, Initial residual = 0.00332787, Final residual = 2.61976e-09, No Iterations 3
DILUPBiCGStab:  Solving for h, Initial residual = 0.00381937, Final residual = 2.67236e-09, No Iterations 3
min/max(T) = 299.794, 1044.97
GAMGPCG:  Solving for p_rgh, Initial residual = 0.0250482, Final residual = 3.41586e-07, No Iterations 5
diagonal:  Solving for rho, Initial residual = 0, Final residual = 0, No Iterations 0
time step continuity errors : sum local = 1.90594e-08, global = 1.42776e-11, cumulative = -2.46234e-07
GAMGPCG:  Solving for p_rgh, Initial residual = 0.00336866, Final residual = 5.86393e-07, No Iterations 4
diagonal:  Solving for rho, Initial residual = 0, Final residual = 0, No Iterations 0
time step continuity errors : sum local = 3.13859e-08, global = 7.1101e-09, cumulative = -2.39124e-07
DILUPBiCGStab:  Solving for omega, Initial residual = 0.00013827, Final residual = 2.10368e-09, No Iterations 2
DILUPBiCGStab:  Solving for k, Initial residual = 0.00599735, Final residual = 3.47634e-09, No Iterations 3

ExecutionTime = 4.42 s  ClockTime = 5 s

    Overall     = 0.00174543, 0.01
Time = 283

diagonal:  Solving for rho, Initial residual = 0, Final residual = 0, No Iterations 0

Execution time for mesh.update() = 0 s

DILUPBiCGStab:  Solving for Ux, Initial residual = 0.00581086, Final residual = 5.79808e-09, No Iterations 3
DILUPBiCGStab:  Solving for Uy, Initial residual = 0.00834817, Final residual = 7.68168e-09, No Iterations 3
DILUPBiCGStab:  Solving for O2, Initial residual = 0.00334189, Final residual = 2.47214e-09, No Iterations 3
DILUPBiCGStab:  Solving for H2O, Initial residual = 0.00334198, Final residual = 2.4724e-09, No Iterations 3
DILUPBiCGStab:  Solving for CH4, Initial residual = 0, Final residual = 0, No Iterations 0
DILUPBiCGStab:  Solving for CO2, Initial residual = 0.00334198, Final residual = 2.4724e-09, No Iterations 3
DILUPBiCGStab:  Solving for h, Initial residual = 0.00383341, Final residual = 2.64397e-09, No Iterations 3
min/max(T) = 299.836, 1044.97
GAMGPCG:  Solving for p_rgh, Initial residual = 0.0259954, Final residual = 2.91806e-07, No Iterations 5
diagonal:  Solving for rho, Initial residual = 0, Final residual = 0, No Iterations 0
time step continuity errors : sum local = 1.61986e-08, global = 1.25347e-11, cumulative = -2.39112e-07
GAMGPCG:  Solving for p_rgh, Initial residual = 0.00342148, Final residual = 4.67016e-07, No Iterations 4
diagonal:  Solving for rho, Initial residual = 0, Final residual = 0, No Iterations 0
time step continuity errors : sum local = 2.49265e-08, global = 4.86871e-09, cumulative = -2.34243e-07
DILUPBiCGStab:  Solving for omega, Initial residual = 0.000137873, Final residual = 1.99615e-09, No Iterations 2
DILUPBiCGStab:  Solving for k, Initial residual = 0.00600257, Final residual = 3.29174e-09, No Iterations 3

ExecutionTime = 4.55 s  ClockTime = 5 s

    Overall     = 0.00176043, 0.01
Time = 284

diagonal:  Solving for rho, Initial residual = 0, Final residual = 0, No Iterations 0

Execution time for mesh.update() = 0 s

DILUPBiCGStab:  Solving for Ux, Initial residual = 0.00587814, Final residual = 5.8891e-09, No Iterations 3
DILUPBiCGStab:  Solving for Uy, Initial residual = 0.00834057, Final residual = 7.17837e-09, No Iterations 3
DILUPBiCGStab:  Solving for O2, Initial residual = 0.00334887, Final residual = 2.48733e-09, No Iterations 3
DILUPBiCGStab:  Solving for H2O, Initial residual = 0.003349, Final residual = 2.48738e-09, No Iterations 3
DILUPBiCGStab:  Solving for CH4, Initial residual = 0, Final residual = 0, No Iterations 0
DILUPBiCGStab:  Solving for CO2, Initial residual = 0.003349, Final residual = 2.48738e-09, No Iterations 3
DILUPBiCGStab:  Solving for h, Initial residual = 0.00383959, Final residual = 2.65723e-09, No Iterations 3
min/max(T) = 299.743, 1044.97
GAMGPCG:  Solving for p_rgh, Initial residual = 0.0241348, Final residual = 4.20505e-07, No Iterations 5
diagonal:  Solving for rho, Initial residual = 0, Final residual = 0, No Iterations 0
time step continuity errors : sum local = 2.335e-08, global = 1.21519e-09, cumulative = -2.33028e-07
GAMGPCG:  Solving for p_rgh, Initial residual = 0.00347651, Final residual = 7.68135e-07, No Iterations 4
diagonal:  Solving for rho, Initial residual = 0, Final residual = 0, No Iterations 0
time step continuity errors : sum local = 4.09622e-08, global = 4.46145e-09, cumulative = -2.28566e-07
DILUPBiCGStab:  Solving for omega, Initial residual = 0.000137503, Final residual = 1.9754e-09, No Iterations 2
DILUPBiCGStab:  Solving for k, Initial residual = 0.00599764, Final residual = 2.87031e-09, No Iterations 3

ExecutionTime = 4.67 s  ClockTime = 5 s

    Overall     = 0.00170971, 0.01
Time = 285

diagonal:  Solving for rho, Initial residual = 0, Final residual = 0, No Iterations 0

Execution time for mesh.update() = 0 s

DILUPBiCGStab:  Solving for Ux, Initial residual = 0.00583114, Final residual = 5.93912e-09, No Iterations 3
DILUPBiCGStab:  Solving for Uy, Initial residual = 0.00825882, Final residual = 6.94518e-09, No Iterations 3
DILUPBiCGStab:  Solving for O2, Initial residual = 0.00336269, Final residual = 2.61835e-09, No Iterations 3
DILUPBiCGStab:  Solving for H2O, Initial residual = 0.00336278, Final residual = 2.61828e-09, No Iterations 3
DILUPBiCGStab:  Solving for CH4, Initial residual = 0, Final residual = 0, No Iterations 0
DILUPBiCGStab:  Solving for CO2, Initial residual = 0.00336278, Final residual = 2.61828e-09, No Iterations 3
DILUPBiCGStab:  Solving for h, Initial residual = 0.00386527, Final residual = 2.64551e-09, No Iterations 3
min/max(T) = 299.805, 1044.97
GAMGPCG:  Solving for p_rgh, Initial residual = 0.0238127, Final residual = 3.13713e-07, No Iterations 5
diagonal:  Solving for rho, Initial residual = 0, Final residual = 0, No Iterations 0
time step continuity errors : sum local = 1.72435e-08, global = -7.30893e-10, cumulative = -2.29297e-07
GAMGPCG:  Solving for p_rgh, Initial residual = 0.00338495, Final residual = 4.9234e-07, No Iterations 4
diagonal:  Solving for rho, Initial residual = 0, Final residual = 0, No Iterations 0
time step continuity errors : sum local = 2.61584e-08, global = 2.61214e-09, cumulative = -2.26685e-07
DILUPBiCGStab:  Solving for omega, Initial residual = 0.000138064, Final residual = 1.87557e-09, No Iterations 2
DILUPBiCGStab:  Solving for k, Initial residual = 0.00599553, Final residual = 3.05556e-09, No Iterations 3

ExecutionTime = 4.79 s  ClockTime = 5 s

    Overall     = 0.00166647, 0.01
Time = 286

diagonal:  Solving for rho, Initial residual = 0, Final residual = 0, No Iterations 0

Execution time for mesh.update() = 0 s

DILUPBiCGStab:  Solving for Ux, Initial residual = 0.00585999, Final residual = 5.59699e-09, No Iterations 3
DILUPBiCGStab:  Solving for Uy, Initial residual = 0.00821073, Final residual = 6.62793e-09, No Iterations 3
DILUPBiCGStab:  Solving for O2, Initial residual = 0.00336601, Final residual = 2.06415e-09, No Iterations 3
DILUPBiCGStab:  Solving for H2O, Initial residual = 0.00336615, Final residual = 2.06415e-09, No Iterations 3
DILUPBiCGStab:  Solving for CH4, Initial residual = 0, Final residual = 0, No Iterations 0
DILUPBiCGStab:  Solving for CO2, Initial residual = 0.00336615, Final residual = 2.06415e-09, No Iterations 3
DILUPBiCGStab:  Solving for h, Initial residual = 0.00387066, Final residual = 2.03896e-09, No Iterations 3
min/max(T) = 299.686, 1044.97
GAMGPCG:  Solving for p_rgh, Initial residual = 0.0236257, Final residual = 2.81074e-07, No Iterations 5
diagonal:  Solving for rho, Initial residual = 0, Final residual = 0, No Iterations 0
time step continuity errors : sum local = 1.54056e-08, global = -6.2481e-10, cumulative = -2.2731e-07
GAMGPCG:  Solving for p_rgh, Initial residual = 0.0033332, Final residual = 3.02362e-07, No Iterations 4
diagonal:  Solving for rho, Initial residual = 0, Final residual = 0, No Iterations 0
time step continuity errors : sum local = 1.59858e-08, global = 2.22047e-09, cumulative = -2.25089e-07
DILUPBiCGStab:  Solving for omega, Initial residual = 0.000137921, Final residual = 1.82711e-09, No Iterations 2
DILUPBiCGStab:  Solving for k, Initial residual = 0.00600814, Final residual = 3.04698e-09, No Iterations 3

ExecutionTime = 4.91 s  ClockTime = 5 s

    Overall     = 0.00162322, 0.01
Time = 287

diagonal:  Solving for rho, Initial residual = 0, Final residual = 0, No Iterations 0

Execution time for mesh.update() = 0 s

DILUPBiCGStab:  Solving for Ux, Initial residual = 0.00580614, Final residual = 5.28316e-09, No Iterations 3
DILUPBiCGStab:  Solving for Uy, Initial residual = 0.00813444, Final residual = 7.13042e-09, No Iterations 3
DILUPBiCGStab:  Solving for O2, Initial residual = 0.00338357, Final residual = 1.86834e-09, No Iterations 3
DILUPBiCGStab:  Solving for H2O, Initial residual = 0.00338365, Final residual = 1.86846e-09, No Iterations 3
DILUPBiCGStab:  Solving for CH4, Initial residual = 0, Final residual = 0, No Iterations 0
DILUPBiCGStab:  Solving for CO2, Initial residual = 0.00338365, Final residual = 1.86846e-09, No Iterations 3
DILUPBiCGStab:  Solving for h, Initial residual = 0.00389381, Final residual = 1.83589e-09, No Iterations 3
min/max(T) = 299.78, 1044.97
GAMGPCG:  Solving for p_rgh, Initial residual = 0.0233852, Final residual = 2.86029e-07, No Iterations 5
diagonal:  Solving for rho, Initial residual = 0, Final residual = 0, No Iterations 0
time step continuity errors : sum local = 1.60987e-08, global = 8.77193e-10, cumulative = -2.24212e-07
GAMGPCG:  Solving for p_rgh, Initial residual = 0.00330109, Final residual = 4.21954e-07, No Iterations 4
diagonal:  Solving for rho, Initial residual = 0, Final residual = 0, No Iterations 0
time step continuity errors : sum local = 2.23397e-08, global = 3.31447e-09, cumulative = -2.20898e-07
DILUPBiCGStab:  Solving for omega, Initial residual = 0.000138722, Final residual = 1.66503e-09, No Iterations 2
DILUPBiCGStab:  Solving for k, Initial residual = 0.00601717, Final residual = 2.70397e-09, No Iterations 3

ExecutionTime = 5.03 s  ClockTime = 5 s

    Overall     = 0.0015884, 0.01
Time = 288

diagonal:  Solving for rho, Initial residual = 0, Final residual = 0, No Iterations 0

Execution time for mesh.update() = 0 s

DILUPBiCGStab:  Solving for Ux, Initial residual = 0.00583444, Final residual = 4.68705e-09, No Iterations 3
DILUPBiCGStab:  Solving for Uy, Initial residual = 0.00816496, Final residual = 7.02272e-09, No Iterations 3
DILUPBiCGStab:  Solving for O2, Initial residual = 0.00338065, Final residual = 1.8654e-09, No Iterations 3
DILUPBiCGStab:  Solving for H2O, Initial residual = 0.00338081, Final residual = 1.8654e-09, No Iterations 3
DILUPBiCGStab:  Solving for CH4, Initial residual = 0, Final residual = 0, No Iterations 0
DILUPBiCGStab:  Solving for CO2, Initial residual = 0.00338081, Final residual = 1.8654e-09, No Iterations 3
DILUPBiCGStab:  Solving for h, Initial residual = 0.00389062, Final residual = 1.91097e-09, No Iterations 3
min/max(T) = 299.624, 1044.97
GAMGPCG:  Solving for p_rgh, Initial residual = 0.0232255, Final residual = 3.26199e-07, No Iterations 5
diagonal:  Solving for rho, Initial residual = 0, Final residual = 0, No Iterations 0
time step continuity errors : sum local = 1.80605e-08, global = -2.93819e-10, cumulative = -2.21191e-07
GAMGPCG:  Solving for p_rgh, Initial residual = 0.00343209, Final residual = 3.1324e-07, No Iterations 4
diagonal:  Solving for rho, Initial residual = 0, Final residual = 0, No Iterations 0
time step continuity errors : sum local = 1.70843e-08, global = 1.6043e-09, cumulative = -2.19587e-07
DILUPBiCGStab:  Solving for omega, Initial residual = 0.000138238, Final residual = 1.52039e-09, No Iterations 2
DILUPBiCGStab:  Solving for k, Initial residual = 0.00601793, Final residual = 1.84028e-09, No Iterations 3

ExecutionTime = 5.14 s  ClockTime = 5 s

    Overall     = 0.00155656, 0.01
Time = 289

diagonal:  Solving for rho, Initial residual = 0, Final residual = 0, No Iterations 0

Execution time for mesh.update() = 0 s

DILUPBiCGStab:  Solving for Ux, Initial residual = 0.005789, Final residual = 4.28532e-09, No Iterations 3
DILUPBiCGStab:  Solving for Uy, Initial residual = 0.0081234, Final residual = 7.93262e-09, No Iterations 3
DILUPBiCGStab:  Solving for O2, Initial residual = 0.00339275, Final residual = 1.97706e-09, No Iterations 3
DILUPBiCGStab:  Solving for H2O, Initial residual = 0.00339277, Final residual = 1.97716e-09, No Iterations 3
DILUPBiCGStab:  Solving for CH4, Initial residual = 0, Final residual = 0, No Iterations 0
DILUPBiCGStab:  Solving for CO2, Initial residual = 0.00339277, Final residual = 1.97716e-09, No Iterations 3
DILUPBiCGStab:  Solving for h, Initial residual = 0.00391178, Final residual = 2.04785e-09, No Iterations 3
min/max(T) = 299.778, 1044.97
GAMGPCG:  Solving for p_rgh, Initial residual = 0.0225232, Final residual = 3.34924e-07, No Iterations 5
diagonal:  Solving for rho, Initial residual = 0, Final residual = 0, No Iterations 0
time step continuity errors : sum local = 1.82768e-08, global = -7.47257e-10, cumulative = -2.20334e-07
GAMGPCG:  Solving for p_rgh, Initial residual = 0.00333687, Final residual = 6.10132e-07, No Iterations 4
diagonal:  Solving for rho, Initial residual = 0, Final residual = 0, No Iterations 0
time step continuity errors : sum local = 3.22354e-08, global = 2.59156e-09, cumulative = -2.17743e-07
DILUPBiCGStab:  Solving for omega, Initial residual = 0.000138827, Final residual = 1.56698e-09, No Iterations 2
DILUPBiCGStab:  Solving for k, Initial residual = 0.00602731, Final residual = 1.97289e-09, No Iterations 3

ExecutionTime = 5.26 s  ClockTime = 5 s

    Overall     = 0.00153447, 0.01
Time = 290

diagonal:  Solving for rho, Initial residual = 0, Final residual = 0, No Iterations 0

Execution time for mesh.update() = 0 s

DILUPBiCGStab:  Solving for Ux, Initial residual = 0.00577707, Final residual = 4.20288e-09, No Iterations 3
DILUPBiCGStab:  Solving for Uy, Initial residual = 0.00809668, Final residual = 7.12363e-09, No Iterations 3
GAMGPCG:  Solving for G, Initial residual = 0.225087, Final residual = 6.19457e-05, No Iterations 6
DILUPBiCGStab:  Solving for O2, Initial residual = 0.00339399, Final residual = 2.26903e-09, No Iterations 3
DILUPBiCGStab:  Solving for H2O, Initial residual = 0.00339414, Final residual = 2.2691e-09, No Iterations 3
DILUPBiCGStab:  Solving for CH4, Initial residual = 0, Final residual = 0, No Iterations 0
DILUPBiCGStab:  Solving for CO2, Initial residual = 0.00339414, Final residual = 2.2691e-09, No Iterations 3
DILUPBiCGStab:  Solving for h, Initial residual = 0.00391128, Final residual = 2.40847e-09, No Iterations 3
min/max(T) = 299.56, 1044.97
GAMGPCG:  Solving for p_rgh, Initial residual = 0.0224716, Final residual = 2.97872e-07, No Iterations 5
diagonal:  Solving for rho, Initial residual = 0, Final residual = 0, No Iterations 0
time step continuity errors : sum local = 1.68487e-08, global = 8.87552e-10, cumulative = -2.16855e-07
GAMGPCG:  Solving for p_rgh, Initial residual = 0.00333564, Final residual = 3.22795e-07, No Iterations 4
diagonal:  Solving for rho, Initial residual = 0, Final residual = 0, No Iterations 0
time step continuity errors : sum local = 1.7706e-08, global = -2.20253e-10, cumulative = -2.17076e-07
DILUPBiCGStab:  Solving for omega, Initial residual = 0.000137802, Final residual = 1.5147e-09, No Iterations 2
DILUPBiCGStab:  Solving for k, Initial residual = 0.00604349, Final residual = 1.92915e-09, No Iterations 3

ExecutionTime = 5.51 s  ClockTime = 6 s

    Overall     = 0.00151174, 0.01
Time = 291

diagonal:  Solving for rho, Initial residual = 0, Final residual = 0, No Iterations 0

Execution time for mesh.update() = 0 s

DILUPBiCGStab:  Solving for Ux, Initial residual = 0.00576488, Final residual = 4.20407e-09, No Iterations 3
DILUPBiCGStab:  Solving for Uy, Initial residual = 0.00809602, Final residual = 7.79844e-09, No Iterations 3
DILUPBiCGStab:  Solving for O2, Initial residual = 0.00339822, Final residual = 2.32061e-09, No Iterations 3
DILUPBiCGStab:  Solving for H2O, Initial residual = 0.00339815, Final residual = 2.3209e-09, No Iterations 3
DILUPBiCGStab:  Solving for CH4, Initial residual = 0, Final residual = 0, No Iterations 0
DILUPBiCGStab:  Solving for CO2, Initial residual = 0.00339815, Final residual = 2.3209e-09, No Iterations 3
DILUPBiCGStab:  Solving for h, Initial residual = 0.00392288, Final residual = 2.49302e-09, No Iterations 3
min/max(T) = 299.881, 1044.97
GAMGPCG:  Solving for p_rgh, Initial residual = 0.022892, Final residual = 3.0759e-07, No Iterations 5
diagonal:  Solving for rho, Initial residual = 0, Final residual = 0, No Iterations 0
time step continuity errors : sum local = 1.73304e-08, global = -4.84835e-11, cumulative = -2.17124e-07
GAMGPCG:  Solving for p_rgh, Initial residual = 0.00332196, Final residual = 6.16453e-07, No Iterations 4
diagonal:  Solving for rho, Initial residual = 0, Final residual = 0, No Iterations 0
time step continuity errors : sum local = 3.2738e-08, global = 2.66544e-09, cumulative = -2.14459e-07
DILUPBiCGStab:  Solving for omega, Initial residual = 0.000137643, Final residual = 1.68338e-09, No Iterations 2
DILUPBiCGStab:  Solving for k, Initial residual = 0.00603534, Final residual = 1.99679e-09, No Iterations 3

ExecutionTime = 5.63 s  ClockTime = 6 s

    Overall     = 0.00149858, 0.01
Time = 292

diagonal:  Solving for rho, Initial residual = 0, Final residual = 0, No Iterations 0

Execution time for mesh.update() = 0 s

DILUPBiCGStab:  Solving for Ux, Initial residual = 0.00578064, Final residual = 4.28919e-09, No Iterations 3
DILUPBiCGStab:  Solving for Uy, Initial residual = 0.00809348, Final residual = 6.73823e-09, No Iterations 3
DILUPBiCGStab:  Solving for O2, Initial residual = 0.00340029, Final residual = 2.61787e-09, No Iterations 3
DILUPBiCGStab:  Solving for H2O, Initial residual = 0.00340042, Final residual = 2.6179e-09, No Iterations 3
DILUPBiCGStab:  Solving for CH4, Initial residual = 0, Final residual = 0, No Iterations 0
DILUPBiCGStab:  Solving for CO2, Initial residual = 0.00340042, Final residual = 2.6179e-09, No Iterations 3
DILUPBiCGStab:  Solving for h, Initial residual = 0.00392034, Final residual = 2.58572e-09, No Iterations 3
min/max(T) = 299.508, 1044.97
GAMGPCG:  Solving for p_rgh, Initial residual = 0.0223774, Final residual = 3.12485e-07, No Iterations 5
diagonal:  Solving for rho, Initial residual = 0, Final residual = 0, No Iterations 0
time step continuity errors : sum local = 1.80497e-08, global = 5.37567e-10, cumulative = -2.13921e-07
GAMGPCG:  Solving for p_rgh, Initial residual = 0.00324842, Final residual = 3.84456e-07, No Iterations 4
diagonal:  Solving for rho, Initial residual = 0, Final residual = 0, No Iterations 0
time step continuity errors : sum local = 2.08208e-08, global = 3.97477e-10, cumulative = -2.13524e-07
DILUPBiCGStab:  Solving for omega, Initial residual = 0.000138043, Final residual = 1.77405e-09, No Iterations 2
DILUPBiCGStab:  Solving for k, Initial residual = 0.00603732, Final residual = 2.09935e-09, No Iterations 3

ExecutionTime = 5.75 s  ClockTime = 6 s

    Overall     = 0.00148051, 0.01
Time = 293

diagonal:  Solving for rho, Initial residual = 0, Final residual = 0, No Iterations 0

[...]

Execution time for mesh.update() = 0 s

DILUPBiCGStab:  Solving for Ux, Initial residual = 0.00595772, Final residual = 5.99402e-09, No Iterations 3
DILUPBiCGStab:  Solving for Uy, Initial residual = 0.00457126, Final residual = 8.78912e-09, No Iterations 3
GAMGPCG:  Solving for G, Initial residual = 0.16208, Final residual = 5.38165e-05, No Iterations 5
DILUPBiCGStab:  Solving for O2, Initial residual = 0.00196672, Final residual = 2.84778e-09, No Iterations 3
DILUPBiCGStab:  Solving for H2O, Initial residual = 0.00196672, Final residual = 2.84778e-09, No Iterations 3
DILUPBiCGStab:  Solving for CH4, Initial residual = 0, Final residual = 0, No Iterations 0
DILUPBiCGStab:  Solving for CO2, Initial residual = 0.00196672, Final residual = 2.84778e-09, No Iterations 3
DILUPBiCGStab:  Solving for h, Initial residual = 0.00218955, Final residual = 2.95538e-09, No Iterations 3
min/max(T) = 300, 1044.97
GAMGPCG:  Solving for p_rgh, Initial residual = 0.0172565, Final residual = 2.72082e-07, No Iterations 5
diagonal:  Solving for rho, Initial residual = 0, Final residual = 0, No Iterations 0
time step continuity errors : sum local = 1.07148e-08, global = 4.91247e-10, cumulative = 2.80653e-06
GAMGPCG:  Solving for p_rgh, Initial residual = 0.00298274, Final residual = 3.94058e-07, No Iterations 4
diagonal:  Solving for rho, Initial residual = 0, Final residual = 0, No Iterations 0
time step continuity errors : sum local = 1.44343e-08, global = -5.53887e-10, cumulative = 2.80598e-06
DILUPBiCGStab:  Solving for omega, Initial residual = 9.28526e-05, Final residual = 1.76689e-09, No Iterations 2
DILUPBiCGStab:  Solving for k, Initial residual = 0.00405907, Final residual = 2.46773e-09, No Iterations 3

ExecutionTime = 296.04 s  ClockTime = 296 s

    Overall     = 0.00123224, 0.01
Time = 2491

diagonal:  Solving for rho, Initial residual = 0, Final residual = 0, No Iterations 0

Execution time for mesh.update() = 0 s

DILUPBiCGStab:  Solving for Ux, Initial residual = 0.00598041, Final residual = 6.44118e-09, No Iterations 3
DILUPBiCGStab:  Solving for Uy, Initial residual = 0.00457831, Final residual = 9.90958e-09, No Iterations 3
DILUPBiCGStab:  Solving for O2, Initial residual = 0.00197334, Final residual = 2.90795e-09, No Iterations 3
DILUPBiCGStab:  Solving for H2O, Initial residual = 0.00197334, Final residual = 2.90795e-09, No Iterations 3
DILUPBiCGStab:  Solving for CH4, Initial residual = 0, Final residual = 0, No Iterations 0
DILUPBiCGStab:  Solving for CO2, Initial residual = 0.00197334, Final residual = 2.90795e-09, No Iterations 3
DILUPBiCGStab:  Solving for h, Initial residual = 0.00219764, Final residual = 2.97206e-09, No Iterations 3
min/max(T) = 300, 1044.97
GAMGPCG:  Solving for p_rgh, Initial residual = 0.0179929, Final residual = 2.40972e-07, No Iterations 5
diagonal:  Solving for rho, Initial residual = 0, Final residual = 0, No Iterations 0
time step continuity errors : sum local = 9.48267e-09, global = 2.3877e-10, cumulative = 2.80622e-06
GAMGPCG:  Solving for p_rgh, Initial residual = 0.0031368, Final residual = 3.54121e-07, No Iterations 4
diagonal:  Solving for rho, Initial residual = 0, Final residual = 0, No Iterations 0
time step continuity errors : sum local = 1.31964e-08, global = -5.53959e-10, cumulative = 2.80566e-06
DILUPBiCGStab:  Solving for omega, Initial residual = 9.35649e-05, Final residual = 1.79595e-09, No Iterations 2
DILUPBiCGStab:  Solving for k, Initial residual = 0.00405777, Final residual = 2.47539e-09, No Iterations 3

ExecutionTime = 296.16 s  ClockTime = 296 s

    Overall     = 0.00122926, 0.01
Time = 2492

diagonal:  Solving for rho, Initial residual = 0, Final residual = 0, No Iterations 0

Execution time for mesh.update() = 0 s

DILUPBiCGStab:  Solving for Ux, Initial residual = 0.00600772, Final residual = 6.33521e-09, No Iterations 3
DILUPBiCGStab:  Solving for Uy, Initial residual = 0.00460575, Final residual = 7.39163e-09, No Iterations 3
DILUPBiCGStab:  Solving for O2, Initial residual = 0.00195782, Final residual = 2.96701e-09, No Iterations 3
DILUPBiCGStab:  Solving for H2O, Initial residual = 0.00195782, Final residual = 2.96701e-09, No Iterations 3
DILUPBiCGStab:  Solving for CH4, Initial residual = 0, Final residual = 0, No Iterations 0
DILUPBiCGStab:  Solving for CO2, Initial residual = 0.00195782, Final residual = 2.96701e-09, No Iterations 3
DILUPBiCGStab:  Solving for h, Initial residual = 0.00217943, Final residual = 2.98271e-09, No Iterations 3
min/max(T) = 300, 1044.97
GAMGPCG:  Solving for p_rgh, Initial residual = 0.0170078, Final residual = 2.12507e-07, No Iterations 5
diagonal:  Solving for rho, Initial residual = 0, Final residual = 0, No Iterations 0
time step continuity errors : sum local = 8.5561e-09, global = -1.06259e-10, cumulative = 2.80556e-06
GAMGPCG:  Solving for p_rgh, Initial residual = 0.00307782, Final residual = 3.9919e-07, No Iterations 4
diagonal:  Solving for rho, Initial residual = 0, Final residual = 0, No Iterations 0
time step continuity errors : sum local = 1.44416e-08, global = -5.35768e-10, cumulative = 2.80502e-06
DILUPBiCGStab:  Solving for omega, Initial residual = 9.13019e-05, Final residual = 1.82807e-09, No Iterations 2
DILUPBiCGStab:  Solving for k, Initial residual = 0.00401781, Final residual = 2.48681e-09, No Iterations 3

ExecutionTime = 296.27 s  ClockTime = 296 s

    Overall     = 0.00122918, 0.01
Time = 2493

diagonal:  Solving for rho, Initial residual = 0, Final residual = 0, No Iterations 0

Execution time for mesh.update() = 0 s

DILUPBiCGStab:  Solving for Ux, Initial residual = 0.00595891, Final residual = 6.55617e-09, No Iterations 3
DILUPBiCGStab:  Solving for Uy, Initial residual = 0.00457321, Final residual = 6.44265e-09, No Iterations 3
DILUPBiCGStab:  Solving for O2, Initial residual = 0.00195929, Final residual = 3.92799e-09, No Iterations 3
DILUPBiCGStab:  Solving for H2O, Initial residual = 0.00195929, Final residual = 3.928e-09, No Iterations 3
DILUPBiCGStab:  Solving for CH4, Initial residual = 0, Final residual = 0, No Iterations 0
DILUPBiCGStab:  Solving for CO2, Initial residual = 0.00195929, Final residual = 3.928e-09, No Iterations 3
DILUPBiCGStab:  Solving for h, Initial residual = 0.00217712, Final residual = 3.74776e-09, No Iterations 3
min/max(T) = 300, 1044.97
GAMGPCG:  Solving for p_rgh, Initial residual = 0.0169219, Final residual = 2.1748e-07, No Iterations 5
diagonal:  Solving for rho, Initial residual = 0, Final residual = 0, No Iterations 0
time step continuity errors : sum local = 8.65421e-09, global = 9.84909e-11, cumulative = 2.80512e-06
GAMGPCG:  Solving for p_rgh, Initial residual = 0.00299677, Final residual = 3.91363e-07, No Iterations 4
diagonal:  Solving for rho, Initial residual = 0, Final residual = 0, No Iterations 0
time step continuity errors : sum local = 1.42899e-08, global = 3.37457e-10, cumulative = 2.80546e-06
DILUPBiCGStab:  Solving for omega, Initial residual = 9.07077e-05, Final residual = 1.87837e-09, No Iterations 2
DILUPBiCGStab:  Solving for k, Initial residual = 0.00399649, Final residual = 2.6095e-09, No Iterations 3

ExecutionTime = 296.39 s  ClockTime = 297 s

    Overall     = 0.00122588, 0.01
Time = 2494

diagonal:  Solving for rho, Initial residual = 0, Final residual = 0, No Iterations 0

Execution time for mesh.update() = 0 s

DILUPBiCGStab:  Solving for Ux, Initial residual = 0.00595182, Final residual = 7.15712e-09, No Iterations 3
DILUPBiCGStab:  Solving for Uy, Initial residual = 0.00458283, Final residual = 5.91652e-09, No Iterations 3
DILUPBiCGStab:  Solving for O2, Initial residual = 0.0019555, Final residual = 3.79684e-09, No Iterations 3
DILUPBiCGStab:  Solving for H2O, Initial residual = 0.0019555, Final residual = 3.79685e-09, No Iterations 3
DILUPBiCGStab:  Solving for CH4, Initial residual = 0, Final residual = 0, No Iterations 0
DILUPBiCGStab:  Solving for CO2, Initial residual = 0.0019555, Final residual = 3.79685e-09, No Iterations 3
DILUPBiCGStab:  Solving for h, Initial residual = 0.00218072, Final residual = 3.61767e-09, No Iterations 3
min/max(T) = 300, 1044.97
GAMGPCG:  Solving for p_rgh, Initial residual = 0.0173717, Final residual = 1.71718e-07, No Iterations 5
diagonal:  Solving for rho, Initial residual = 0, Final residual = 0, No Iterations 0
time step continuity errors : sum local = 6.6586e-09, global = 2.98535e-10, cumulative = 2.80576e-06
GAMGPCG:  Solving for p_rgh, Initial residual = 0.00302581, Final residual = 4.15033e-07, No Iterations 4
diagonal:  Solving for rho, Initial residual = 0, Final residual = 0, No Iterations 0
time step continuity errors : sum local = 1.51284e-08, global = 9.38744e-10, cumulative = 2.8067e-06
DILUPBiCGStab:  Solving for omega, Initial residual = 9.22484e-05, Final residual = 1.83241e-09, No Iterations 2
DILUPBiCGStab:  Solving for k, Initial residual = 0.00400735, Final residual = 1.78103e-09, No Iterations 3

ExecutionTime = 296.51 s  ClockTime = 297 s

    Overall     = 0.00122553, 0.01
Time = 2495

diagonal:  Solving for rho, Initial residual = 0, Final residual = 0, No Iterations 0

Execution time for mesh.update() = 0 s

DILUPBiCGStab:  Solving for Ux, Initial residual = 0.00601144, Final residual = 8.49791e-09, No Iterations 3
DILUPBiCGStab:  Solving for Uy, Initial residual = 0.00464899, Final residual = 6.20172e-09, No Iterations 3
DILUPBiCGStab:  Solving for O2, Initial residual = 0.00195713, Final residual = 3.39033e-09, No Iterations 3
DILUPBiCGStab:  Solving for H2O, Initial residual = 0.00195713, Final residual = 3.39033e-09, No Iterations 3
DILUPBiCGStab:  Solving for CH4, Initial residual = 0, Final residual = 0, No Iterations 0
DILUPBiCGStab:  Solving for CO2, Initial residual = 0.00195713, Final residual = 3.39033e-09, No Iterations 3
DILUPBiCGStab:  Solving for h, Initial residual = 0.00217926, Final residual = 3.27056e-09, No Iterations 3
min/max(T) = 300, 1044.97
GAMGPCG:  Solving for p_rgh, Initial residual = 0.0176154, Final residual = 9.41506e-07, No Iterations 4
diagonal:  Solving for rho, Initial residual = 0, Final residual = 0, No Iterations 0
time step continuity errors : sum local = 3.61038e-08, global = 2.82773e-09, cumulative = 2.80952e-06
GAMGPCG:  Solving for p_rgh, Initial residual = 0.00319426, Final residual = 3.3291e-07, No Iterations 4
diagonal:  Solving for rho, Initial residual = 0, Final residual = 0, No Iterations 0
time step continuity errors : sum local = 1.25538e-08, global = 1.99125e-09, cumulative = 2.81151e-06
DILUPBiCGStab:  Solving for omega, Initial residual = 9.04594e-05, Final residual = 1.79477e-09, No Iterations 2
DILUPBiCGStab:  Solving for k, Initial residual = 0.0039781, Final residual = 9.08148e-09, No Iterations 3

ExecutionTime = 296.63 s  ClockTime = 297 s

    Overall     = 0.00122165, 0.01
Time = 2496

diagonal:  Solving for rho, Initial residual = 0, Final residual = 0, No Iterations 0

Execution time for mesh.update() = 0 s

DILUPBiCGStab:  Solving for Ux, Initial residual = 0.00596659, Final residual = 8.98084e-09, No Iterations 3
DILUPBiCGStab:  Solving for Uy, Initial residual = 0.00463568, Final residual = 6.0973e-09, No Iterations 3
DILUPBiCGStab:  Solving for O2, Initial residual = 0.0019589, Final residual = 2.94719e-09, No Iterations 3
DILUPBiCGStab:  Solving for H2O, Initial residual = 0.0019589, Final residual = 2.94719e-09, No Iterations 3
DILUPBiCGStab:  Solving for CH4, Initial residual = 0, Final residual = 0, No Iterations 0
DILUPBiCGStab:  Solving for CO2, Initial residual = 0.0019589, Final residual = 2.94719e-09, No Iterations 3
DILUPBiCGStab:  Solving for h, Initial residual = 0.00218881, Final residual = 3.00328e-09, No Iterations 3
min/max(T) = 300, 1044.97
GAMGPCG:  Solving for p_rgh, Initial residual = 0.0181289, Final residual = 1.85334e-07, No Iterations 5
diagonal:  Solving for rho, Initial residual = 0, Final residual = 0, No Iterations 0
time step continuity errors : sum local = 7.21731e-09, global = -1.48359e-09, cumulative = 2.81003e-06
GAMGPCG:  Solving for p_rgh, Initial residual = 0.00310287, Final residual = 3.16805e-07, No Iterations 4
diagonal:  Solving for rho, Initial residual = 0, Final residual = 0, No Iterations 0
time step continuity errors : sum local = 1.17415e-08, global = 1.42145e-09, cumulative = 2.81145e-06
DILUPBiCGStab:  Solving for omega, Initial residual = 9.19268e-05, Final residual = 1.88485e-09, No Iterations 2
DILUPBiCGStab:  Solving for k, Initial residual = 0.00395206, Final residual = 8.89395e-09, No Iterations 3

ExecutionTime = 296.75 s  ClockTime = 297 s

    Overall     = 0.00122035, 0.01
Time = 2497

diagonal:  Solving for rho, Initial residual = 0, Final residual = 0, No Iterations 0

Execution time for mesh.update() = 0 s

DILUPBiCGStab:  Solving for Ux, Initial residual = 0.00596754, Final residual = 8.83543e-09, No Iterations 3
DILUPBiCGStab:  Solving for Uy, Initial residual = 0.00464964, Final residual = 7.20269e-09, No Iterations 3
DILUPBiCGStab:  Solving for O2, Initial residual = 0.00196048, Final residual = 3.10314e-09, No Iterations 3
DILUPBiCGStab:  Solving for H2O, Initial residual = 0.00196048, Final residual = 3.10314e-09, No Iterations 3
DILUPBiCGStab:  Solving for CH4, Initial residual = 0, Final residual = 0, No Iterations 0
DILUPBiCGStab:  Solving for CO2, Initial residual = 0.00196048, Final residual = 3.10314e-09, No Iterations 3
DILUPBiCGStab:  Solving for h, Initial residual = 0.00219128, Final residual = 3.23579e-09, No Iterations 3
min/max(T) = 300, 1044.97
GAMGPCG:  Solving for p_rgh, Initial residual = 0.0185883, Final residual = 9.53634e-07, No Iterations 4
diagonal:  Solving for rho, Initial residual = 0, Final residual = 0, No Iterations 0
time step continuity errors : sum local = 3.69663e-08, global = 2.10556e-09, cumulative = 2.81356e-06
GAMGPCG:  Solving for p_rgh, Initial residual = 0.00319011, Final residual = 4.36322e-07, No Iterations 4
diagonal:  Solving for rho, Initial residual = 0, Final residual = 0, No Iterations 0
time step continuity errors : sum local = 1.62341e-08, global = 2.62995e-09, cumulative = 2.81619e-06
DILUPBiCGStab:  Solving for omega, Initial residual = 9.04056e-05, Final residual = 1.84108e-09, No Iterations 2
DILUPBiCGStab:  Solving for k, Initial residual = 0.00395646, Final residual = 3.42328e-09, No Iterations 3

ExecutionTime = 296.86 s  ClockTime = 297 s

    Overall     = 0.00121756, 0.01
Time = 2498

diagonal:  Solving for rho, Initial residual = 0, Final residual = 0, No Iterations 0

Execution time for mesh.update() = 0 s

DILUPBiCGStab:  Solving for Ux, Initial residual = 0.00597619, Final residual = 9.0636e-09, No Iterations 3
DILUPBiCGStab:  Solving for Uy, Initial residual = 0.00464683, Final residual = 6.64399e-09, No Iterations 3
DILUPBiCGStab:  Solving for O2, Initial residual = 0.00194591, Final residual = 2.99037e-09, No Iterations 3
DILUPBiCGStab:  Solving for H2O, Initial residual = 0.00194591, Final residual = 2.99037e-09, No Iterations 3
DILUPBiCGStab:  Solving for CH4, Initial residual = 0, Final residual = 0, No Iterations 0
DILUPBiCGStab:  Solving for CO2, Initial residual = 0.00194591, Final residual = 2.99037e-09, No Iterations 3
DILUPBiCGStab:  Solving for h, Initial residual = 0.00217637, Final residual = 3.1502e-09, No Iterations 3
min/max(T) = 300, 1044.97
GAMGPCG:  Solving for p_rgh, Initial residual = 0.0183308, Final residual = 1.72442e-07, No Iterations 5
diagonal:  Solving for rho, Initial residual = 0, Final residual = 0, No Iterations 0
time step continuity errors : sum local = 6.85398e-09, global = -8.88553e-10, cumulative = 2.8153e-06
GAMGPCG:  Solving for p_rgh, Initial residual = 0.0032966, Final residual = 3.66378e-07, No Iterations 4
diagonal:  Solving for rho, Initial residual = 0, Final residual = 0, No Iterations 0
time step continuity errors : sum local = 1.39707e-08, global = 3.13607e-09, cumulative = 2.81844e-06
DILUPBiCGStab:  Solving for omega, Initial residual = 9.24245e-05, Final residual = 1.95568e-09, No Iterations 2
DILUPBiCGStab:  Solving for k, Initial residual = 0.00395012, Final residual = 3.21713e-09, No Iterations 3
bounding k, min: -0.000623515 max: 0.0373024 average: 0.00399568

ExecutionTime = 296.98 s  ClockTime = 297 s

    Overall     = 0.00121657, 0.01
Time = 2499

diagonal:  Solving for rho, Initial residual = 0, Final residual = 0, No Iterations 0

Execution time for mesh.update() = 0 s

DILUPBiCGStab:  Solving for Ux, Initial residual = 0.00598336, Final residual = 9.40026e-09, No Iterations 3
DILUPBiCGStab:  Solving for Uy, Initial residual = 0.00466402, Final residual = 6.76205e-09, No Iterations 3
DILUPBiCGStab:  Solving for O2, Initial residual = 0.0019391, Final residual = 3.00957e-09, No Iterations 3
DILUPBiCGStab:  Solving for H2O, Initial residual = 0.0019391, Final residual = 3.00957e-09, No Iterations 3
DILUPBiCGStab:  Solving for CH4, Initial residual = 0, Final residual = 0, No Iterations 0
DILUPBiCGStab:  Solving for CO2, Initial residual = 0.0019391, Final residual = 3.00957e-09, No Iterations 3
DILUPBiCGStab:  Solving for h, Initial residual = 0.00217115, Final residual = 3.12736e-09, No Iterations 3
min/max(T) = 300, 1044.97
GAMGPCG:  Solving for p_rgh, Initial residual = 0.0180266, Final residual = 1.62929e-07, No Iterations 5
diagonal:  Solving for rho, Initial residual = 0, Final residual = 0, No Iterations 0
time step continuity errors : sum local = 6.25704e-09, global = -4.83033e-10, cumulative = 2.81795e-06
GAMGPCG:  Solving for p_rgh, Initial residual = 0.00323445, Final residual = 4.61983e-07, No Iterations 4
diagonal:  Solving for rho, Initial residual = 0, Final residual = 0, No Iterations 0
time step continuity errors : sum local = 1.74062e-08, global = 2.75374e-09, cumulative = 2.82071e-06
DILUPBiCGStab:  Solving for omega, Initial residual = 8.92275e-05, Final residual = 1.87746e-09, No Iterations 2
DILUPBiCGStab:  Solving for k, Initial residual = 0.00391352, Final residual = 3.42985e-09, No Iterations 3

ExecutionTime = 297.1 s  ClockTime = 297 s

    Overall     = 0.00121315, 0.01
Time = 2500

diagonal:  Solving for rho, Initial residual = 0, Final residual = 0, No Iterations 0

Execution time for mesh.update() = 0 s

DILUPBiCGStab:  Solving for Ux, Initial residual = 0.00597069, Final residual = 9.44203e-09, No Iterations 3
DILUPBiCGStab:  Solving for Uy, Initial residual = 0.00463133, Final residual = 8.45507e-09, No Iterations 3
GAMGPCG:  Solving for G, Initial residual = 0.23322, Final residual = 7.1818e-05, No Iterations 5
DILUPBiCGStab:  Solving for O2, Initial residual = 0.00195138, Final residual = 2.82468e-09, No Iterations 3
DILUPBiCGStab:  Solving for H2O, Initial residual = 0.00195138, Final residual = 2.82468e-09, No Iterations 3
DILUPBiCGStab:  Solving for CH4, Initial residual = 0, Final residual = 0, No Iterations 0
DILUPBiCGStab:  Solving for CO2, Initial residual = 0.00195138, Final residual = 2.82468e-09, No Iterations 3
DILUPBiCGStab:  Solving for h, Initial residual = 0.00218904, Final residual = 2.96145e-09, No Iterations 3
min/max(T) = 300, 1044.97
GAMGPCG:  Solving for p_rgh, Initial residual = 0.0190881, Final residual = 2.04597e-07, No Iterations 5
diagonal:  Solving for rho, Initial residual = 0, Final residual = 0, No Iterations 0
time step continuity errors : sum local = 7.49742e-09, global = -1.88857e-10, cumulative = 2.82052e-06
GAMGPCG:  Solving for p_rgh, Initial residual = 0.0031858, Final residual = 5.37554e-07, No Iterations 4
diagonal:  Solving for rho, Initial residual = 0, Final residual = 0, No Iterations 0
time step continuity errors : sum local = 2.01337e-08, global = 2.67781e-09, cumulative = 2.8232e-06
DILUPBiCGStab:  Solving for omega, Initial residual = 8.9501e-05, Final residual = 1.9037e-09, No Iterations 2
DILUPBiCGStab:  Solving for k, Initial residual = 0.00392813, Final residual = 3.45358e-09, No Iterations 3

ExecutionTime = 297.35 s  ClockTime = 298 s


Patch Mean : 302.692
Patch Variance : 0.00673354
Patch Gradient : 0.188686
End
