/*---------------------------------------------------------------------------*\
  =========                 |
  \\      /  F ield         | OpenFOAM: The Open Source CFD Toolbox
   \\    /   O peration     | Website:  https://openfoam.org
    \\  /    A nd           | Version:  dev
     \\/     M anipulation  |
\*---------------------------------------------------------------------------*/
Build  : dev-cabe48fb62c1
Exec   : fireDyMFoam
Date   : Apr 15 2019
Time   : 12:20:53
Host   : "Host"
PID    : 32362
I/O    : uncollated
Case   : /home/tesla/OpenFOAM/tesla-dev/run/rollerOpt_COBYLA_NEW
nProcs : 1
sigFpe : Enabling floating point exception trapping (FOAM_SIGFPE).
fileModificationChecking : Monitoring run-time modified files using timeStampMaster (fileModificationSkew 10)
allowSystemOperations : Allowing user-supplied system call operations

// * * * * * * * * * * * * * * * * * * * * * * * * * * * * * * * * * * * * * //
Create time

--> FOAM Warning : 
    From function void* Foam::dlOpen(const Foam::fileName&, bool)
    in file POSIX.C at line 1268
    dlopen error : libgroovyBC.so: cannot open shared object file: No such file or directory
--> FOAM Warning : 
    From function bool Foam::dlLibraryTable::open(const Foam::fileName&, bool)
    in file db/dynamicLibrary/dlLibraryTable/dlLibraryTable.C at line 105
    could not load "libgroovyBC.so"
Create mesh for time = 250

Selecting dynamicFvMesh dynamicRefineFvMesh
Detected 532 cells that are protected from refinement. Writing these to cellSet protectedCells.

PIMPLE: No convergence criteria found


PIMPLE: Operating solver in PISO mode


Initializing Solver

Selecting thermodynamics package 
{
    type            hePsiThermo;
    mixture         reactingMixture;
    transport       sutherland;
    thermo          janaf;
    energy          sensibleEnthalpy;
    equationOfState perfectGas;
    specie          specie;
}

Selecting chemistryReader foamChemistryReader
    elements not defined in "/home/tesla/OpenFOAM/tesla-dev/run/rollerOpt_COBYLA_NEW/constant/reactions"
Reading/calculating face flux field phi

No MRF models present

Selecting turbulence model type RAS
Selecting RAS turbulence model kOmegaSST
Selecting patchDistMethod meshWave
kOmegaSSTCoeffs
{
    delta           cubeRootVol;
    cubeRootVolCoeffs
    {
        deltaCoeff      1;
    }
    alphaK1         0.85;
    alphaK2         1;
    alphaOmega1     0.5;
    alphaOmega2     0.856;
    gamma1          0.555556;
    gamma2          0.44;
    beta1           0.075;
    beta2           0.0828;
    betaStar        0.09;
    a1              0.31;
    b1              1;
    c1              10;
    F3              false;
}

Selecting combustion model none<psiThermoCombustion>
--> FOAM Warning : 
    From function static Foam::autoPtr<T> Foam::combustionModel::New(typename CombustionModel::reactionThermo&, const Foam::compressibleTurbulenceModel&, const Foam::word&) [with CombustionModel = Foam::CombustionModel<Foam::psiReactionThermo>; typename CombustionModel::reactionThermo = Foam::psiReactionThermo]
    in file /home/tesla/OpenFOAM/OpenFOAM-dev/src/combustionModels/lnInclude/combustionModelTemplates.C at line 69
    Template parameters are no longer required when selecting a combustionModel. This information is now obtained directly from the thermodynamics. Actually selecting combustion model none.

Reading g

Reading hRef
Calculating field g.h


Reading pRef
Selecting radiationModel P1
Selecting absorptionEmissionModel greyMeanAbsorptionEmission
Selecting scatterModel none
Selecting sootModel none
Creating finite volume options from "system/fvOptions"

No finite volume options present
Using LTS

Starting time loop

Using dynamicCode for functionObject patchCalcs at line 64 in "/home/tesla/OpenFOAM/tesla-dev/run/rollerOpt_COBYLA_NEW/system/controlDict.functions.patchCalcs"
    Overall     = 0.0012451, 0.01
Time = 251

diagonal:  Solving for rho, Initial residual = 0, Final residual = 0, No Iterations 0

Execution time for mesh.update() = 0 s

DILUPBiCGStab:  Solving for Ux, Initial residual = 0.0065811, Final residual = 1.41435e-09, No Iterations 3
DILUPBiCGStab:  Solving for Uy, Initial residual = 0.0113554, Final residual = 9.93271e-09, No Iterations 3
GAMGPCG:  Solving for G, Initial residual = 0.0235475, Final residual = 7.00744e-05, No Iterations 3
DILUPBiCGStab:  Solving for O2, Initial residual = 0.000998654, Final residual = 1.08852e-09, No Iterations 3
DILUPBiCGStab:  Solving for H2O, Initial residual = 0.000998713, Final residual = 1.08841e-09, No Iterations 3
DILUPBiCGStab:  Solving for CH4, Initial residual = 0, Final residual = 0, No Iterations 0
DILUPBiCGStab:  Solving for CO2, Initial residual = 0.000998715, Final residual = 1.0884e-09, No Iterations 3
DILUPBiCGStab:  Solving for h, Initial residual = 0.00111017, Final residual = 9.90569e-10, No Iterations 3
min/max(T) = 299.86, 1044.97
GAMGPCG:  Solving for p_rgh, Initial residual = 0.017855, Final residual = 1.61414e-07, No Iterations 5
diagonal:  Solving for rho, Initial residual = 0, Final residual = 0, No Iterations 0
time step continuity errors : sum local = 2.45668e-06, global = -1.54129e-07, cumulative = -1.54129e-07
GAMGPCG:  Solving for p_rgh, Initial residual = 0.00306809, Final residual = 2.49502e-07, No Iterations 4
diagonal:  Solving for rho, Initial residual = 0, Final residual = 0, No Iterations 0
time step continuity errors : sum local = 2.45612e-06, global = -1.53084e-07, cumulative = -3.07214e-07
DILUPBiCGStab:  Solving for omega, Initial residual = 5.58598e-05, Final residual = 1.02369e-09, No Iterations 2
DILUPBiCGStab:  Solving for k, Initial residual = 0.00180995, Final residual = 1.44992e-09, No Iterations 3

ExecutionTime = 0.38 s  ClockTime = 1 s

    Overall     = 0.00124281, 0.01
Time = 252

diagonal:  Solving for rho, Initial residual = 0, Final residual = 0, No Iterations 0

Execution time for mesh.update() = 0 s

DILUPBiCGStab:  Solving for Ux, Initial residual = 0.00656896, Final residual = 1.42572e-09, No Iterations 3
DILUPBiCGStab:  Solving for Uy, Initial residual = 0.0112083, Final residual = 1.19621e-09, No Iterations 3
DILUPBiCGStab:  Solving for O2, Initial residual = 0.00100087, Final residual = 1.00545e-09, No Iterations 3
DILUPBiCGStab:  Solving for H2O, Initial residual = 0.00100099, Final residual = 1.00532e-09, No Iterations 3
DILUPBiCGStab:  Solving for CH4, Initial residual = 0, Final residual = 0, No Iterations 0
DILUPBiCGStab:  Solving for CO2, Initial residual = 0.00100099, Final residual = 1.00533e-09, No Iterations 3
DILUPBiCGStab:  Solving for h, Initial residual = 0.00111333, Final residual = 9.30712e-10, No Iterations 3
min/max(T) = 299.857, 1044.97
GAMGPCG:  Solving for p_rgh, Initial residual = 0.0185621, Final residual = 1.92328e-07, No Iterations 5
diagonal:  Solving for rho, Initial residual = 0, Final residual = 0, No Iterations 0
time step continuity errors : sum local = 8.01916e-09, global = -2.92932e-10, cumulative = -3.07507e-07
GAMGPCG:  Solving for p_rgh, Initial residual = 0.00275615, Final residual = 2.41754e-07, No Iterations 4
diagonal:  Solving for rho, Initial residual = 0, Final residual = 0, No Iterations 0
time step continuity errors : sum local = 9.83582e-09, global = 8.68787e-10, cumulative = -3.06638e-07
DILUPBiCGStab:  Solving for omega, Initial residual = 5.63968e-05, Final residual = 1.01173e-09, No Iterations 2
DILUPBiCGStab:  Solving for k, Initial residual = 0.00180669, Final residual = 1.31365e-09, No Iterations 3

ExecutionTime = 0.5 s  ClockTime = 1 s

    Overall     = 0.00124334, 0.01
Time = 253

diagonal:  Solving for rho, Initial residual = 0, Final residual = 0, No Iterations 0

Execution time for mesh.update() = 0 s

DILUPBiCGStab:  Solving for Ux, Initial residual = 0.00673412, Final residual = 1.39172e-09, No Iterations 3
DILUPBiCGStab:  Solving for Uy, Initial residual = 0.0113602, Final residual = 9.932e-09, No Iterations 3
DILUPBiCGStab:  Solving for O2, Initial residual = 0.000990874, Final residual = 1.09055e-09, No Iterations 3
DILUPBiCGStab:  Solving for H2O, Initial residual = 0.000990941, Final residual = 1.09032e-09, No Iterations 3
DILUPBiCGStab:  Solving for CH4, Initial residual = 0, Final residual = 0, No Iterations 0
DILUPBiCGStab:  Solving for CO2, Initial residual = 0.000990941, Final residual = 1.09033e-09, No Iterations 3
DILUPBiCGStab:  Solving for h, Initial residual = 0.00109852, Final residual = 9.3e-10, No Iterations 3
min/max(T) = 299.854, 1044.97
GAMGPCG:  Solving for p_rgh, Initial residual = 0.0179028, Final residual = 8.31921e-07, No Iterations 4
diagonal:  Solving for rho, Initial residual = 0, Final residual = 0, No Iterations 0
time step continuity errors : sum local = 3.49236e-08, global = -4.35965e-09, cumulative = -3.10998e-07
GAMGPCG:  Solving for p_rgh, Initial residual = 0.00295628, Final residual = 1.91162e-07, No Iterations 4
diagonal:  Solving for rho, Initial residual = 0, Final residual = 0, No Iterations 0
time step continuity errors : sum local = 7.87386e-09, global = 5.97331e-10, cumulative = -3.104e-07
DILUPBiCGStab:  Solving for omega, Initial residual = 5.52158e-05, Final residual = 9.65794e-10, No Iterations 2
DILUPBiCGStab:  Solving for k, Initial residual = 0.00180446, Final residual = 1.29447e-09, No Iterations 3

ExecutionTime = 0.62 s  ClockTime = 1 s

    Overall     = 0.0012405, 0.01
Time = 254

diagonal:  Solving for rho, Initial residual = 0, Final residual = 0, No Iterations 0

Execution time for mesh.update() = 0 s

DILUPBiCGStab:  Solving for Ux, Initial residual = 0.00676882, Final residual = 1.3703e-09, No Iterations 3
DILUPBiCGStab:  Solving for Uy, Initial residual = 0.0112391, Final residual = 9.83087e-09, No Iterations 3
DILUPBiCGStab:  Solving for O2, Initial residual = 0.000998175, Final residual = 1.01663e-09, No Iterations 3
DILUPBiCGStab:  Solving for H2O, Initial residual = 0.000998241, Final residual = 1.01651e-09, No Iterations 3
DILUPBiCGStab:  Solving for CH4, Initial residual = 0, Final residual = 0, No Iterations 0
DILUPBiCGStab:  Solving for CO2, Initial residual = 0.000998241, Final residual = 1.01651e-09, No Iterations 3
DILUPBiCGStab:  Solving for h, Initial residual = 0.00110216, Final residual = 8.73635e-10, No Iterations 3
min/max(T) = 299.851, 1044.97
GAMGPCG:  Solving for p_rgh, Initial residual = 0.0178735, Final residual = 5.40942e-07, No Iterations 4
diagonal:  Solving for rho, Initial residual = 0, Final residual = 0, No Iterations 0
time step continuity errors : sum local = 2.24777e-08, global = -2.4457e-09, cumulative = -3.12846e-07
GAMGPCG:  Solving for p_rgh, Initial residual = 0.00278996, Final residual = 1.9211e-07, No Iterations 4
diagonal:  Solving for rho, Initial residual = 0, Final residual = 0, No Iterations 0
time step continuity errors : sum local = 7.89197e-09, global = 7.97e-10, cumulative = -3.12049e-07
DILUPBiCGStab:  Solving for omega, Initial residual = 5.56618e-05, Final residual = 9.73058e-10, No Iterations 2
DILUPBiCGStab:  Solving for k, Initial residual = 0.00179454, Final residual = 1.34087e-09, No Iterations 3

ExecutionTime = 0.73 s  ClockTime = 1 s

    Overall     = 0.00124064, 0.01
Time = 255

diagonal:  Solving for rho, Initial residual = 0, Final residual = 0, No Iterations 0

Execution time for mesh.update() = 0 s

DILUPBiCGStab:  Solving for Ux, Initial residual = 0.0068517, Final residual = 1.34195e-09, No Iterations 3
DILUPBiCGStab:  Solving for Uy, Initial residual = 0.0113472, Final residual = 1.12838e-09, No Iterations 3
DILUPBiCGStab:  Solving for O2, Initial residual = 0.000992359, Final residual = 9.30994e-10, No Iterations 3
DILUPBiCGStab:  Solving for H2O, Initial residual = 0.000992429, Final residual = 9.30951e-10, No Iterations 3
DILUPBiCGStab:  Solving for CH4, Initial residual = 0, Final residual = 0, No Iterations 0
DILUPBiCGStab:  Solving for CO2, Initial residual = 0.000992429, Final residual = 9.30955e-10, No Iterations 3
DILUPBiCGStab:  Solving for h, Initial residual = 0.00110114, Final residual = 9.73902e-09, No Iterations 2
min/max(T) = 299.848, 1044.97
GAMGPCG:  Solving for p_rgh, Initial residual = 0.0184137, Final residual = 5.86778e-07, No Iterations 4
diagonal:  Solving for rho, Initial residual = 0, Final residual = 0, No Iterations 0
time step continuity errors : sum local = 2.4794e-08, global = -3.98227e-09, cumulative = -3.16031e-07
GAMGPCG:  Solving for p_rgh, Initial residual = 0.00292705, Final residual = 1.80275e-07, No Iterations 4
diagonal:  Solving for rho, Initial residual = 0, Final residual = 0, No Iterations 0
time step continuity errors : sum local = 7.41023e-09, global = 6.79176e-10, cumulative = -3.15352e-07
DILUPBiCGStab:  Solving for omega, Initial residual = 5.48172e-05, Final residual = 9.00382e-10, No Iterations 2
DILUPBiCGStab:  Solving for k, Initial residual = 0.00179678, Final residual = 1.5868e-09, No Iterations 3

ExecutionTime = 0.85 s  ClockTime = 1 s

    Overall     = 0.00123805, 0.01
Time = 256

diagonal:  Solving for rho, Initial residual = 0, Final residual = 0, No Iterations 0

Execution time for mesh.update() = 0 s

DILUPBiCGStab:  Solving for Ux, Initial residual = 0.00697959, Final residual = 1.21392e-09, No Iterations 3
DILUPBiCGStab:  Solving for Uy, Initial residual = 0.0113633, Final residual = 1.13967e-09, No Iterations 3
DILUPBiCGStab:  Solving for O2, Initial residual = 0.000996306, Final residual = 8.74181e-10, No Iterations 3
DILUPBiCGStab:  Solving for H2O, Initial residual = 0.000996376, Final residual = 8.74176e-10, No Iterations 3
DILUPBiCGStab:  Solving for CH4, Initial residual = 0, Final residual = 0, No Iterations 0
DILUPBiCGStab:  Solving for CO2, Initial residual = 0.000996376, Final residual = 8.74177e-10, No Iterations 3
DILUPBiCGStab:  Solving for h, Initial residual = 0.00110681, Final residual = 9.84728e-09, No Iterations 2
min/max(T) = 299.846, 1044.97
GAMGPCG:  Solving for p_rgh, Initial residual = 0.0180588, Final residual = 8.46845e-07, No Iterations 4
diagonal:  Solving for rho, Initial residual = 0, Final residual = 0, No Iterations 0
time step continuity errors : sum local = 3.55412e-08, global = -3.96713e-09, cumulative = -3.19319e-07
GAMGPCG:  Solving for p_rgh, Initial residual = 0.00283218, Final residual = 2.15936e-07, No Iterations 4
diagonal:  Solving for rho, Initial residual = 0, Final residual = 0, No Iterations 0
time step continuity errors : sum local = 8.88877e-09, global = 9.40608e-10, cumulative = -3.18379e-07
DILUPBiCGStab:  Solving for omega, Initial residual = 5.54941e-05, Final residual = 8.20744e-10, No Iterations 2
DILUPBiCGStab:  Solving for k, Initial residual = 0.00179731, Final residual = 1.68452e-09, No Iterations 3

ExecutionTime = 0.97 s  ClockTime = 1 s

    Overall     = 0.0012382, 0.01
Time = 257

diagonal:  Solving for rho, Initial residual = 0, Final residual = 0, No Iterations 0

Execution time for mesh.update() = 0 s

DILUPBiCGStab:  Solving for Ux, Initial residual = 0.00707497, Final residual = 1.08495e-09, No Iterations 3
DILUPBiCGStab:  Solving for Uy, Initial residual = 0.0113862, Final residual = 1.32497e-09, No Iterations 3
DILUPBiCGStab:  Solving for O2, Initial residual = 0.000997713, Final residual = 9.78515e-09, No Iterations 2
DILUPBiCGStab:  Solving for H2O, Initial residual = 0.000997854, Final residual = 9.7851e-09, No Iterations 2
DILUPBiCGStab:  Solving for CH4, Initial residual = 0, Final residual = 0, No Iterations 0
DILUPBiCGStab:  Solving for CO2, Initial residual = 0.000997854, Final residual = 9.78509e-09, No Iterations 2
DILUPBiCGStab:  Solving for h, Initial residual = 0.00110998, Final residual = 9.43704e-09, No Iterations 2
min/max(T) = 299.842, 1044.97
GAMGPCG:  Solving for p_rgh, Initial residual = 0.0191158, Final residual = 6.7163e-07, No Iterations 4
diagonal:  Solving for rho, Initial residual = 0, Final residual = 0, No Iterations 0
time step continuity errors : sum local = 2.80475e-08, global = -4.66082e-09, cumulative = -3.23039e-07
GAMGPCG:  Solving for p_rgh, Initial residual = 0.00288175, Final residual = 2.11755e-07, No Iterations 4
diagonal:  Solving for rho, Initial residual = 0, Final residual = 0, No Iterations 0
time step continuity errors : sum local = 8.81445e-09, global = 1.25056e-09, cumulative = -3.21789e-07
DILUPBiCGStab:  Solving for omega, Initial residual = 5.4558e-05, Final residual = 8.14856e-10, No Iterations 2
DILUPBiCGStab:  Solving for k, Initial residual = 0.00179513, Final residual = 1.70965e-09, No Iterations 3

ExecutionTime = 1.08 s  ClockTime = 1 s

    Overall     = 0.00123605, 0.01
Time = 258

diagonal:  Solving for rho, Initial residual = 0, Final residual = 0, No Iterations 0

Execution time for mesh.update() = 0 s

DILUPBiCGStab:  Solving for Ux, Initial residual = 0.0071877, Final residual = 1.16132e-09, No Iterations 3
DILUPBiCGStab:  Solving for Uy, Initial residual = 0.0114695, Final residual = 1.55749e-09, No Iterations 3
DILUPBiCGStab:  Solving for O2, Initial residual = 0.000986084, Final residual = 9.51253e-09, No Iterations 2
DILUPBiCGStab:  Solving for H2O, Initial residual = 0.000986229, Final residual = 9.5128e-09, No Iterations 2
DILUPBiCGStab:  Solving for CH4, Initial residual = 0, Final residual = 0, No Iterations 0
DILUPBiCGStab:  Solving for CO2, Initial residual = 0.000986229, Final residual = 9.51279e-09, No Iterations 2
DILUPBiCGStab:  Solving for h, Initial residual = 0.00109732, Final residual = 9.81668e-09, No Iterations 2
min/max(T) = 299.84, 1044.97
GAMGPCG:  Solving for p_rgh, Initial residual = 0.0178792, Final residual = 6.76112e-07, No Iterations 4
diagonal:  Solving for rho, Initial residual = 0, Final residual = 0, No Iterations 0
time step continuity errors : sum local = 2.81694e-08, global = -2.80019e-09, cumulative = -3.24589e-07
GAMGPCG:  Solving for p_rgh, Initial residual = 0.00291545, Final residual = 9.74248e-07, No Iterations 3
diagonal:  Solving for rho, Initial residual = 0, Final residual = 0, No Iterations 0
time step continuity errors : sum local = 4.00932e-08, global = 6.90354e-09, cumulative = -3.17685e-07
DILUPBiCGStab:  Solving for omega, Initial residual = 5.52468e-05, Final residual = 8.25283e-10, No Iterations 2
DILUPBiCGStab:  Solving for k, Initial residual = 0.00180303, Final residual = 1.83638e-09, No Iterations 3

ExecutionTime = 1.19 s  ClockTime = 1 s

    Overall     = 0.00123645, 0.01
Time = 259

diagonal:  Solving for rho, Initial residual = 0, Final residual = 0, No Iterations 0

Execution time for mesh.update() = 0 s

DILUPBiCGStab:  Solving for Ux, Initial residual = 0.00720917, Final residual = 9.827e-09, No Iterations 3
DILUPBiCGStab:  Solving for Uy, Initial residual = 0.0113279, Final residual = 1.76479e-09, No Iterations 3
DILUPBiCGStab:  Solving for O2, Initial residual = 0.000987261, Final residual = 9.25531e-10, No Iterations 3
DILUPBiCGStab:  Solving for H2O, Initial residual = 0.000987341, Final residual = 9.25573e-10, No Iterations 3
DILUPBiCGStab:  Solving for CH4, Initial residual = 0, Final residual = 0, No Iterations 0
DILUPBiCGStab:  Solving for CO2, Initial residual = 0.000987341, Final residual = 9.25574e-10, No Iterations 3
DILUPBiCGStab:  Solving for h, Initial residual = 0.0010993, Final residual = 9.21065e-10, No Iterations 3
min/max(T) = 299.837, 1044.97
GAMGPCG:  Solving for p_rgh, Initial residual = 0.0176035, Final residual = 5.32494e-07, No Iterations 4
diagonal:  Solving for rho, Initial residual = 0, Final residual = 0, No Iterations 0
time step continuity errors : sum local = 2.22045e-08, global = 5.95999e-10, cumulative = -3.17089e-07
GAMGPCG:  Solving for p_rgh, Initial residual = 0.00276119, Final residual = 9.76536e-07, No Iterations 3
diagonal:  Solving for rho, Initial residual = 0, Final residual = 0, No Iterations 0
time step continuity errors : sum local = 4.01775e-08, global = 6.79449e-09, cumulative = -3.10295e-07
DILUPBiCGStab:  Solving for omega, Initial residual = 5.36633e-05, Final residual = 9.92769e-09, No Iterations 2
DILUPBiCGStab:  Solving for k, Initial residual = 0.00180219, Final residual = 1.72595e-09, No Iterations 3

ExecutionTime = 1.3 s  ClockTime = 2 s

    Overall     = 0.00123448, 0.01
Time = 260

diagonal:  Solving for rho, Initial residual = 0, Final residual = 0, No Iterations 0

Execution time for mesh.update() = 0 s

DILUPBiCGStab:  Solving for Ux, Initial residual = 0.00728806, Final residual = 9.72713e-09, No Iterations 3
DILUPBiCGStab:  Solving for Uy, Initial residual = 0.0113383, Final residual = 1.85334e-09, No Iterations 3
GAMGPCG:  Solving for G, Initial residual = 0.073281, Final residual = 9.41241e-05, No Iterations 5
DILUPBiCGStab:  Solving for O2, Initial residual = 0.000979996, Final residual = 9.47829e-10, No Iterations 3
DILUPBiCGStab:  Solving for H2O, Initial residual = 0.000980077, Final residual = 9.47865e-10, No Iterations 3
DILUPBiCGStab:  Solving for CH4, Initial residual = 0, Final residual = 0, No Iterations 0
DILUPBiCGStab:  Solving for CO2, Initial residual = 0.000980077, Final residual = 9.47866e-10, No Iterations 3
DILUPBiCGStab:  Solving for h, Initial residual = 0.00109271, Final residual = 9.21123e-10, No Iterations 3
min/max(T) = 299.835, 1044.97
GAMGPCG:  Solving for p_rgh, Initial residual = 0.0172712, Final residual = 4.16749e-07, No Iterations 4
diagonal:  Solving for rho, Initial residual = 0, Final residual = 0, No Iterations 0
time step continuity errors : sum local = 1.74106e-08, global = 2.74177e-12, cumulative = -3.10292e-07
GAMGPCG:  Solving for p_rgh, Initial residual = 0.00280244, Final residual = 9.68555e-07, No Iterations 3
diagonal:  Solving for rho, Initial residual = 0, Final residual = 0, No Iterations 0
time step continuity errors : sum local = 3.99978e-08, global = 6.89383e-09, cumulative = -3.03398e-07
DILUPBiCGStab:  Solving for omega, Initial residual = 5.40441e-05, Final residual = 8.87519e-10, No Iterations 2
DILUPBiCGStab:  Solving for k, Initial residual = 0.00180797, Final residual = 1.84313e-09, No Iterations 3

ExecutionTime = 1.55 s  ClockTime = 2 s

    Overall     = 0.00123534, 0.01
Time = 261

diagonal:  Solving for rho, Initial residual = 0, Final residual = 0, No Iterations 0

Execution time for mesh.update() = 0 s

DILUPBiCGStab:  Solving for Ux, Initial residual = 0.00736609, Final residual = 9.5402e-09, No Iterations 3
DILUPBiCGStab:  Solving for Uy, Initial residual = 0.0112645, Final residual = 1.94e-09, No Iterations 3
DILUPBiCGStab:  Solving for O2, Initial residual = 0.0010001, Final residual = 9.30722e-10, No Iterations 3
DILUPBiCGStab:  Solving for H2O, Initial residual = 0.00100018, Final residual = 9.30748e-10, No Iterations 3
DILUPBiCGStab:  Solving for CH4, Initial residual = 0, Final residual = 0, No Iterations 0
DILUPBiCGStab:  Solving for CO2, Initial residual = 0.00100018, Final residual = 9.30749e-10, No Iterations 3
DILUPBiCGStab:  Solving for h, Initial residual = 0.0011179, Final residual = 9.19633e-10, No Iterations 3
min/max(T) = 299.833, 1044.97
GAMGPCG:  Solving for p_rgh, Initial residual = 0.0182633, Final residual = 5.71966e-07, No Iterations 4
diagonal:  Solving for rho, Initial residual = 0, Final residual = 0, No Iterations 0
time step continuity errors : sum local = 2.37993e-08, global = -2.81497e-09, cumulative = -3.06213e-07
GAMGPCG:  Solving for p_rgh, Initial residual = 0.00276336, Final residual = 9.471e-07, No Iterations 3
diagonal:  Solving for rho, Initial residual = 0, Final residual = 0, No Iterations 0
time step continuity errors : sum local = 3.9189e-08, global = 5.37119e-09, cumulative = -3.00842e-07
DILUPBiCGStab:  Solving for omega, Initial residual = 5.3791e-05, Final residual = 9.67399e-09, No Iterations 2
DILUPBiCGStab:  Solving for k, Initial residual = 0.00181615, Final residual = 1.87088e-09, No Iterations 3

ExecutionTime = 1.66 s  ClockTime = 2 s

    Overall     = 0.00123349, 0.01
Time = 262

diagonal:  Solving for rho, Initial residual = 0, Final residual = 0, No Iterations 0

Execution time for mesh.update() = 0 s

DILUPBiCGStab:  Solving for Ux, Initial residual = 0.00751626, Final residual = 9.7789e-09, No Iterations 3
DILUPBiCGStab:  Solving for Uy, Initial residual = 0.0114133, Final residual = 1.90816e-09, No Iterations 3
DILUPBiCGStab:  Solving for O2, Initial residual = 0.000989438, Final residual = 9.10258e-10, No Iterations 3
DILUPBiCGStab:  Solving for H2O, Initial residual = 0.000989593, Final residual = 9.10273e-10, No Iterations 3
DILUPBiCGStab:  Solving for CH4, Initial residual = 0, Final residual = 0, No Iterations 0
DILUPBiCGStab:  Solving for CO2, Initial residual = 0.000989593, Final residual = 9.10273e-10, No Iterations 3
DILUPBiCGStab:  Solving for h, Initial residual = 0.00110456, Final residual = 9.63283e-10, No Iterations 3
min/max(T) = 299.831, 1044.97
GAMGPCG:  Solving for p_rgh, Initial residual = 0.0176658, Final residual = 8.03016e-07, No Iterations 4
diagonal:  Solving for rho, Initial residual = 0, Final residual = 0, No Iterations 0
time step continuity errors : sum local = 3.33083e-08, global = -4.17976e-09, cumulative = -3.05022e-07
GAMGPCG:  Solving for p_rgh, Initial residual = 0.00294587, Final residual = 9.30114e-07, No Iterations 3
diagonal:  Solving for rho, Initial residual = 0, Final residual = 0, No Iterations 0
time step continuity errors : sum local = 3.81085e-08, global = 4.31016e-09, cumulative = -3.00712e-07
DILUPBiCGStab:  Solving for omega, Initial residual = 5.43513e-05, Final residual = 7.88698e-10, No Iterations 2
DILUPBiCGStab:  Solving for k, Initial residual = 0.00182389, Final residual = 1.79452e-09, No Iterations 3

ExecutionTime = 1.78 s  ClockTime = 2 s

    Overall     = 0.00123418, 0.01
Time = 263

diagonal:  Solving for rho, Initial residual = 0, Final residual = 0, No Iterations 0

Execution time for mesh.update() = 0 s

DILUPBiCGStab:  Solving for Ux, Initial residual = 0.00748675, Final residual = 1.16335e-09, No Iterations 3
DILUPBiCGStab:  Solving for Uy, Initial residual = 0.0112515, Final residual = 2.02227e-09, No Iterations 3
DILUPBiCGStab:  Solving for O2, Initial residual = 0.000998682, Final residual = 9.5673e-09, No Iterations 2
DILUPBiCGStab:  Solving for H2O, Initial residual = 0.000998838, Final residual = 9.56732e-09, No Iterations 2
DILUPBiCGStab:  Solving for CH4, Initial residual = 0, Final residual = 0, No Iterations 0
DILUPBiCGStab:  Solving for CO2, Initial residual = 0.000998838, Final residual = 9.56732e-09, No Iterations 2
DILUPBiCGStab:  Solving for h, Initial residual = 0.00111531, Final residual = 8.37641e-10, No Iterations 3
min/max(T) = 299.828, 1044.97
GAMGPCG:  Solving for p_rgh, Initial residual = 0.0172689, Final residual = 5.28765e-07, No Iterations 4
diagonal:  Solving for rho, Initial residual = 0, Final residual = 0, No Iterations 0
time step continuity errors : sum local = 2.19562e-08, global = -4.56667e-09, cumulative = -3.05278e-07
GAMGPCG:  Solving for p_rgh, Initial residual = 0.00269492, Final residual = 9.33669e-07, No Iterations 3
diagonal:  Solving for rho, Initial residual = 0, Final residual = 0, No Iterations 0
time step continuity errors : sum local = 3.8223e-08, global = 3.87293e-09, cumulative = -3.01406e-07
DILUPBiCGStab:  Solving for omega, Initial residual = 5.50285e-05, Final residual = 9.97154e-09, No Iterations 2
DILUPBiCGStab:  Solving for k, Initial residual = 0.00183514, Final residual = 1.74883e-09, No Iterations 3

ExecutionTime = 1.89 s  ClockTime = 2 s

    Overall     = 0.00123164, 0.01
Time = 264

diagonal:  Solving for rho, Initial residual = 0, Final residual = 0, No Iterations 0

Execution time for mesh.update() = 0 s

DILUPBiCGStab:  Solving for Ux, Initial residual = 0.00759233, Final residual = 1.28092e-09, No Iterations 3
DILUPBiCGStab:  Solving for Uy, Initial residual = 0.0112424, Final residual = 1.92307e-09, No Iterations 3
DILUPBiCGStab:  Solving for O2, Initial residual = 0.000990756, Final residual = 9.02082e-09, No Iterations 2
DILUPBiCGStab:  Solving for H2O, Initial residual = 0.00099084, Final residual = 9.02077e-09, No Iterations 2
DILUPBiCGStab:  Solving for CH4, Initial residual = 0, Final residual = 0, No Iterations 0
DILUPBiCGStab:  Solving for CO2, Initial residual = 0.000990841, Final residual = 9.02077e-09, No Iterations 2
DILUPBiCGStab:  Solving for h, Initial residual = 0.00110496, Final residual = 9.66896e-09, No Iterations 2
min/max(T) = 299.825, 1044.97
GAMGPCG:  Solving for p_rgh, Initial residual = 0.01709, Final residual = 5.11737e-07, No Iterations 4
diagonal:  Solving for rho, Initial residual = 0, Final residual = 0, No Iterations 0
time step continuity errors : sum local = 2.10655e-08, global = -3.04183e-09, cumulative = -3.04447e-07
GAMGPCG:  Solving for p_rgh, Initial residual = 0.00288867, Final residual = 8.18893e-07, No Iterations 3
diagonal:  Solving for rho, Initial residual = 0, Final residual = 0, No Iterations 0
time step continuity errors : sum local = 3.34383e-08, global = 5.74861e-09, cumulative = -2.98699e-07
DILUPBiCGStab:  Solving for omega, Initial residual = 5.51059e-05, Final residual = 7.19972e-10, No Iterations 2
DILUPBiCGStab:  Solving for k, Initial residual = 0.00183902, Final residual = 1.695e-09, No Iterations 3

ExecutionTime = 2 s  ClockTime = 2 s

    Overall     = 0.00123177, 0.01
Time = 265

diagonal:  Solving for rho, Initial residual = 0, Final residual = 0, No Iterations 0

Execution time for mesh.update() = 0 s

DILUPBiCGStab:  Solving for Ux, Initial residual = 0.00766932, Final residual = 1.39738e-09, No Iterations 3
DILUPBiCGStab:  Solving for Uy, Initial residual = 0.0112195, Final residual = 1.81151e-09, No Iterations 3
DILUPBiCGStab:  Solving for O2, Initial residual = 0.000996056, Final residual = 8.92953e-09, No Iterations 2
DILUPBiCGStab:  Solving for H2O, Initial residual = 0.000996141, Final residual = 8.92952e-09, No Iterations 2
DILUPBiCGStab:  Solving for CH4, Initial residual = 0, Final residual = 0, No Iterations 0
DILUPBiCGStab:  Solving for CO2, Initial residual = 0.000996141, Final residual = 8.92952e-09, No Iterations 2
DILUPBiCGStab:  Solving for h, Initial residual = 0.00111083, Final residual = 9.46075e-09, No Iterations 2
min/max(T) = 299.821, 1044.97
GAMGPCG:  Solving for p_rgh, Initial residual = 0.0175166, Final residual = 4.5212e-07, No Iterations 4
diagonal:  Solving for rho, Initial residual = 0, Final residual = 0, No Iterations 0
time step continuity errors : sum local = 1.86001e-08, global = 7.45132e-10, cumulative = -2.97954e-07
GAMGPCG:  Solving for p_rgh, Initial residual = 0.00272934, Final residual = 7.79759e-07, No Iterations 3
diagonal:  Solving for rho, Initial residual = 0, Final residual = 0, No Iterations 0
time step continuity errors : sum local = 3.20455e-08, global = 4.51214e-09, cumulative = -2.93441e-07
DILUPBiCGStab:  Solving for omega, Initial residual = 5.55932e-05, Final residual = 7.36471e-10, No Iterations 2
DILUPBiCGStab:  Solving for k, Initial residual = 0.00185832, Final residual = 1.92193e-09, No Iterations 3

ExecutionTime = 2.11 s  ClockTime = 2 s

    Overall     = 0.00122931, 0.01
Time = 266

diagonal:  Solving for rho, Initial residual = 0, Final residual = 0, No Iterations 0

Execution time for mesh.update() = 0 s

DILUPBiCGStab:  Solving for Ux, Initial residual = 0.00775782, Final residual = 1.475e-09, No Iterations 3
DILUPBiCGStab:  Solving for Uy, Initial residual = 0.0111977, Final residual = 1.75279e-09, No Iterations 3
DILUPBiCGStab:  Solving for O2, Initial residual = 0.000995939, Final residual = 9.22553e-09, No Iterations 2
DILUPBiCGStab:  Solving for H2O, Initial residual = 0.000996105, Final residual = 9.2256e-09, No Iterations 2
DILUPBiCGStab:  Solving for CH4, Initial residual = 0, Final residual = 0, No Iterations 0
DILUPBiCGStab:  Solving for CO2, Initial residual = 0.000996105, Final residual = 9.22559e-09, No Iterations 2
DILUPBiCGStab:  Solving for h, Initial residual = 0.0011149, Final residual = 9.90369e-09, No Iterations 2
min/max(T) = 299.819, 1044.97
GAMGPCG:  Solving for p_rgh, Initial residual = 0.017355, Final residual = 3.72304e-07, No Iterations 4
diagonal:  Solving for rho, Initial residual = 0, Final residual = 0, No Iterations 0
time step continuity errors : sum local = 1.55681e-08, global = -1.54639e-09, cumulative = -2.94988e-07
GAMGPCG:  Solving for p_rgh, Initial residual = 0.00285456, Final residual = 7.25183e-07, No Iterations 3
diagonal:  Solving for rho, Initial residual = 0, Final residual = 0, No Iterations 0
time step continuity errors : sum local = 2.99851e-08, global = 4.23925e-09, cumulative = -2.90749e-07
DILUPBiCGStab:  Solving for omega, Initial residual = 5.64666e-05, Final residual = 7.45178e-10, No Iterations 2
DILUPBiCGStab:  Solving for k, Initial residual = 0.00187194, Final residual = 1.95975e-09, No Iterations 3

ExecutionTime = 2.23 s  ClockTime = 2 s

    Overall     = 0.00123035, 0.01
Time = 267

diagonal:  Solving for rho, Initial residual = 0, Final residual = 0, No Iterations 0

Execution time for mesh.update() = 0 s

DILUPBiCGStab:  Solving for Ux, Initial residual = 0.00785865, Final residual = 1.5723e-09, No Iterations 3
DILUPBiCGStab:  Solving for Uy, Initial residual = 0.0112046, Final residual = 1.74229e-09, No Iterations 3
DILUPBiCGStab:  Solving for O2, Initial residual = 0.000995746, Final residual = 9.40899e-09, No Iterations 2
DILUPBiCGStab:  Solving for H2O, Initial residual = 0.000995912, Final residual = 9.40908e-09, No Iterations 2
DILUPBiCGStab:  Solving for CH4, Initial residual = 0, Final residual = 0, No Iterations 0
DILUPBiCGStab:  Solving for CO2, Initial residual = 0.000995912, Final residual = 9.40908e-09, No Iterations 2
DILUPBiCGStab:  Solving for h, Initial residual = 0.00111127, Final residual = 9.48483e-09, No Iterations 2
min/max(T) = 299.817, 1044.97
GAMGPCG:  Solving for p_rgh, Initial residual = 0.0164241, Final residual = 5.34967e-07, No Iterations 4
diagonal:  Solving for rho, Initial residual = 0, Final residual = 0, No Iterations 0
time step continuity errors : sum local = 2.19117e-08, global = -4.4409e-09, cumulative = -2.95189e-07
GAMGPCG:  Solving for p_rgh, Initial residual = 0.00279438, Final residual = 8.62767e-07, No Iterations 3
diagonal:  Solving for rho, Initial residual = 0, Final residual = 0, No Iterations 0
time step continuity errors : sum local = 3.53452e-08, global = 3.52139e-09, cumulative = -2.91668e-07
DILUPBiCGStab:  Solving for omega, Initial residual = 5.59986e-05, Final residual = 9.73368e-09, No Iterations 2
DILUPBiCGStab:  Solving for k, Initial residual = 0.00188727, Final residual = 2.08275e-09, No Iterations 3

ExecutionTime = 2.34 s  ClockTime = 3 s

    Overall     = 0.00122852, 0.01
Time = 268

diagonal:  Solving for rho, Initial residual = 0, Final residual = 0, No Iterations 0

Execution time for mesh.update() = 0 s

DILUPBiCGStab:  Solving for Ux, Initial residual = 0.00789034, Final residual = 1.56432e-09, No Iterations 3
DILUPBiCGStab:  Solving for Uy, Initial residual = 0.0110804, Final residual = 1.76471e-09, No Iterations 3
DILUPBiCGStab:  Solving for O2, Initial residual = 0.00100177, Final residual = 9.40449e-09, No Iterations 2
DILUPBiCGStab:  Solving for H2O, Initial residual = 0.00100193, Final residual = 9.4046e-09, No Iterations 2
DILUPBiCGStab:  Solving for CH4, Initial residual = 0, Final residual = 0, No Iterations 0
DILUPBiCGStab:  Solving for CO2, Initial residual = 0.00100193, Final residual = 9.40459e-09, No Iterations 2
DILUPBiCGStab:  Solving for h, Initial residual = 0.00112151, Final residual = 9.03033e-09, No Iterations 2
min/max(T) = 299.816, 1044.97
GAMGPCG:  Solving for p_rgh, Initial residual = 0.0180603, Final residual = 4.89367e-07, No Iterations 4
diagonal:  Solving for rho, Initial residual = 0, Final residual = 0, No Iterations 0
time step continuity errors : sum local = 2.01865e-08, global = -4.59558e-09, cumulative = -2.96264e-07
GAMGPCG:  Solving for p_rgh, Initial residual = 0.0027568, Final residual = 8.61377e-07, No Iterations 3
diagonal:  Solving for rho, Initial residual = 0, Final residual = 0, No Iterations 0
time step continuity errors : sum local = 3.52083e-08, global = 3.46901e-09, cumulative = -2.92795e-07
DILUPBiCGStab:  Solving for omega, Initial residual = 5.6926e-05, Final residual = 7.7726e-10, No Iterations 2
DILUPBiCGStab:  Solving for k, Initial residual = 0.00190663, Final residual = 2.01551e-09, No Iterations 3

ExecutionTime = 2.45 s  ClockTime = 3 s

    Overall     = 0.00122968, 0.01
Time = 269

diagonal:  Solving for rho, Initial residual = 0, Final residual = 0, No Iterations 0

Execution time for mesh.update() = 0 s

DILUPBiCGStab:  Solving for Ux, Initial residual = 0.0080304, Final residual = 1.55756e-09, No Iterations 3
DILUPBiCGStab:  Solving for Uy, Initial residual = 0.0111641, Final residual = 1.59377e-09, No Iterations 3
DILUPBiCGStab:  Solving for O2, Initial residual = 0.000993621, Final residual = 9.85573e-09, No Iterations 2
DILUPBiCGStab:  Solving for H2O, Initial residual = 0.000993788, Final residual = 9.85581e-09, No Iterations 2
DILUPBiCGStab:  Solving for CH4, Initial residual = 0, Final residual = 0, No Iterations 0
DILUPBiCGStab:  Solving for CO2, Initial residual = 0.000993788, Final residual = 9.8558e-09, No Iterations 2
DILUPBiCGStab:  Solving for h, Initial residual = 0.00110726, Final residual = 9.08052e-09, No Iterations 2
min/max(T) = 299.814, 1044.97
GAMGPCG:  Solving for p_rgh, Initial residual = 0.0168071, Final residual = 4.26309e-07, No Iterations 4
diagonal:  Solving for rho, Initial residual = 0, Final residual = 0, No Iterations 0
time step continuity errors : sum local = 1.75748e-08, global = -2.08162e-09, cumulative = -2.94876e-07
GAMGPCG:  Solving for p_rgh, Initial residual = 0.00296995, Final residual = 7.14868e-07, No Iterations 3
diagonal:  Solving for rho, Initial residual = 0, Final residual = 0, No Iterations 0
time step continuity errors : sum local = 2.93635e-08, global = 4.15646e-09, cumulative = -2.9072e-07
DILUPBiCGStab:  Solving for omega, Initial residual = 5.70468e-05, Final residual = 8.0364e-10, No Iterations 2
DILUPBiCGStab:  Solving for k, Initial residual = 0.00192155, Final residual = 2.1586e-09, No Iterations 3

ExecutionTime = 2.56 s  ClockTime = 3 s

    Overall     = 0.00122725, 0.01
Time = 270

diagonal:  Solving for rho, Initial residual = 0, Final residual = 0, No Iterations 0

Execution time for mesh.update() = 0 s

DILUPBiCGStab:  Solving for Ux, Initial residual = 0.00798985, Final residual = 1.4136e-09, No Iterations 3
DILUPBiCGStab:  Solving for Uy, Initial residual = 0.0109545, Final residual = 1.52483e-09, No Iterations 3
GAMGPCG:  Solving for G, Initial residual = 0.0847951, Final residual = 2.4069e-05, No Iterations 6
DILUPBiCGStab:  Solving for O2, Initial residual = 0.000997849, Final residual = 1.12592e-09, No Iterations 3
DILUPBiCGStab:  Solving for H2O, Initial residual = 0.000998018, Final residual = 1.12589e-09, No Iterations 3
DILUPBiCGStab:  Solving for CH4, Initial residual = 0, Final residual = 0, No Iterations 0
DILUPBiCGStab:  Solving for CO2, Initial residual = 0.000998018, Final residual = 1.12589e-09, No Iterations 3
DILUPBiCGStab:  Solving for h, Initial residual = 0.00111175, Final residual = 9.63613e-09, No Iterations 2
min/max(T) = 299.813, 1044.97
GAMGPCG:  Solving for p_rgh, Initial residual = 0.0172017, Final residual = 4.08103e-07, No Iterations 4
diagonal:  Solving for rho, Initial residual = 0, Final residual = 0, No Iterations 0
time step continuity errors : sum local = 1.67253e-08, global = 1.3088e-09, cumulative = -2.89411e-07
GAMGPCG:  Solving for p_rgh, Initial residual = 0.00267258, Final residual = 7.50424e-07, No Iterations 3
diagonal:  Solving for rho, Initial residual = 0, Final residual = 0, No Iterations 0
time step continuity errors : sum local = 3.08601e-08, global = 2.40668e-09, cumulative = -2.87004e-07
DILUPBiCGStab:  Solving for omega, Initial residual = 5.80832e-05, Final residual = 7.40988e-10, No Iterations 2
DILUPBiCGStab:  Solving for k, Initial residual = 0.00193898, Final residual = 2.26704e-09, No Iterations 3

ExecutionTime = 2.82 s  ClockTime = 3 s

    Overall     = 0.00122779, 0.01
Time = 271

diagonal:  Solving for rho, Initial residual = 0, Final residual = 0, No Iterations 0

Execution time for mesh.update() = 0 s

DILUPBiCGStab:  Solving for Ux, Initial residual = 0.00807396, Final residual = 1.2736e-09, No Iterations 3
DILUPBiCGStab:  Solving for Uy, Initial residual = 0.0109255, Final residual = 1.50555e-09, No Iterations 3
DILUPBiCGStab:  Solving for O2, Initial residual = 0.00100277, Final residual = 1.40294e-09, No Iterations 3
DILUPBiCGStab:  Solving for H2O, Initial residual = 0.00100294, Final residual = 1.40285e-09, No Iterations 3
DILUPBiCGStab:  Solving for CH4, Initial residual = 0, Final residual = 0, No Iterations 0
DILUPBiCGStab:  Solving for CO2, Initial residual = 0.00100294, Final residual = 1.40285e-09, No Iterations 3
DILUPBiCGStab:  Solving for h, Initial residual = 0.00112377, Final residual = 9.6513e-09, No Iterations 2
min/max(T) = 299.81, 1044.97
GAMGPCG:  Solving for p_rgh, Initial residual = 0.0173392, Final residual = 3.82216e-07, No Iterations 4
diagonal:  Solving for rho, Initial residual = 0, Final residual = 0, No Iterations 0
time step continuity errors : sum local = 1.58098e-08, global = 7.91936e-11, cumulative = -2.86925e-07
GAMGPCG:  Solving for p_rgh, Initial residual = 0.00288013, Final residual = 6.93323e-07, No Iterations 3
diagonal:  Solving for rho, Initial residual = 0, Final residual = 0, No Iterations 0
time step continuity errors : sum local = 2.84673e-08, global = 2.5325e-09, cumulative = -2.84393e-07
DILUPBiCGStab:  Solving for omega, Initial residual = 5.87303e-05, Final residual = 7.27996e-10, No Iterations 2
DILUPBiCGStab:  Solving for k, Initial residual = 0.0019464, Final residual = 2.29581e-09, No Iterations 3

ExecutionTime = 2.93 s  ClockTime = 3 s

    Overall     = 0.00122523, 0.01
Time = 272

diagonal:  Solving for rho, Initial residual = 0, Final residual = 0, No Iterations 0

Execution time for mesh.update() = 0 s

DILUPBiCGStab:  Solving for Ux, Initial residual = 0.00811631, Final residual = 1.19844e-09, No Iterations 3
DILUPBiCGStab:  Solving for Uy, Initial residual = 0.0108377, Final residual = 1.56597e-09, No Iterations 3
DILUPBiCGStab:  Solving for O2, Initial residual = 0.0010044, Final residual = 3.36167e-09, No Iterations 3
DILUPBiCGStab:  Solving for H2O, Initial residual = 0.00100458, Final residual = 3.36099e-09, No Iterations 3
DILUPBiCGStab:  Solving for CH4, Initial residual = 0, Final residual = 0, No Iterations 0
DILUPBiCGStab:  Solving for CO2, Initial residual = 0.00100458, Final residual = 3.36099e-09, No Iterations 3
DILUPBiCGStab:  Solving for h, Initial residual = 0.00112321, Final residual = 1.28866e-09, No Iterations 3
min/max(T) = 299.806, 1044.97
GAMGPCG:  Solving for p_rgh, Initial residual = 0.0163844, Final residual = 5.47669e-07, No Iterations 4
diagonal:  Solving for rho, Initial residual = 0, Final residual = 0, No Iterations 0
time step continuity errors : sum local = 2.25582e-08, global = -3.36725e-09, cumulative = -2.8776e-07
GAMGPCG:  Solving for p_rgh, Initial residual = 0.00275325, Final residual = 7.78153e-07, No Iterations 3
diagonal:  Solving for rho, Initial residual = 0, Final residual = 0, No Iterations 0
time step continuity errors : sum local = 3.18244e-08, global = 3.06627e-09, cumulative = -2.84694e-07
DILUPBiCGStab:  Solving for omega, Initial residual = 5.90295e-05, Final residual = 7.39887e-10, No Iterations 2
DILUPBiCGStab:  Solving for k, Initial residual = 0.00195908, Final residual = 2.42973e-09, No Iterations 3

ExecutionTime = 3.04 s  ClockTime = 3 s

    Overall     = 0.00122558, 0.01
Time = 273

diagonal:  Solving for rho, Initial residual = 0, Final residual = 0, No Iterations 0

Execution time for mesh.update() = 0 s

DILUPBiCGStab:  Solving for Ux, Initial residual = 0.00815601, Final residual = 9.89932e-10, No Iterations 3
DILUPBiCGStab:  Solving for Uy, Initial residual = 0.0107738, Final residual = 1.46173e-09, No Iterations 3
DILUPBiCGStab:  Solving for O2, Initial residual = 0.00101024, Final residual = 4.78861e-09, No Iterations 3
DILUPBiCGStab:  Solving for H2O, Initial residual = 0.00101041, Final residual = 4.78752e-09, No Iterations 3
DILUPBiCGStab:  Solving for CH4, Initial residual = 0, Final residual = 0, No Iterations 0
DILUPBiCGStab:  Solving for CO2, Initial residual = 0.00101041, Final residual = 4.78753e-09, No Iterations 3
DILUPBiCGStab:  Solving for h, Initial residual = 0.00113028, Final residual = 4.10064e-09, No Iterations 3
min/max(T) = 299.806, 1044.97
GAMGPCG:  Solving for p_rgh, Initial residual = 0.0173643, Final residual = 3.87672e-07, No Iterations 4
diagonal:  Solving for rho, Initial residual = 0, Final residual = 0, No Iterations 0
time step continuity errors : sum local = 1.57172e-08, global = -4.20394e-09, cumulative = -2.88898e-07
GAMGPCG:  Solving for p_rgh, Initial residual = 0.00274477, Final residual = 7.13326e-07, No Iterations 3
diagonal:  Solving for rho, Initial residual = 0, Final residual = 0, No Iterations 0
time step continuity errors : sum local = 2.92249e-08, global = 1.62141e-09, cumulative = -2.87276e-07
DILUPBiCGStab:  Solving for omega, Initial residual = 5.88024e-05, Final residual = 6.98748e-10, No Iterations 2
DILUPBiCGStab:  Solving for k, Initial residual = 0.00197272, Final residual = 2.55951e-09, No Iterations 3

ExecutionTime = 3.16 s  ClockTime = 3 s

    Overall     = 0.00122353, 0.01
Time = 274

diagonal:  Solving for rho, Initial residual = 0, Final residual = 0, No Iterations 0

Execution time for mesh.update() = 0 s

DILUPBiCGStab:  Solving for Ux, Initial residual = 0.00824734, Final residual = 1.01409e-09, No Iterations 3
DILUPBiCGStab:  Solving for Uy, Initial residual = 0.0107878, Final residual = 1.41102e-09, No Iterations 3
DILUPBiCGStab:  Solving for O2, Initial residual = 0.000997513, Final residual = 4.89686e-09, No Iterations 3
DILUPBiCGStab:  Solving for H2O, Initial residual = 0.000997689, Final residual = 4.89592e-09, No Iterations 3
DILUPBiCGStab:  Solving for CH4, Initial residual = 0, Final residual = 0, No Iterations 0
DILUPBiCGStab:  Solving for CO2, Initial residual = 0.000997689, Final residual = 4.89593e-09, No Iterations 3
DILUPBiCGStab:  Solving for h, Initial residual = 0.00111286, Final residual = 1.56989e-09, No Iterations 3
min/max(T) = 299.806, 1044.97
GAMGPCG:  Solving for p_rgh, Initial residual = 0.0163844, Final residual = 4.43428e-07, No Iterations 4
diagonal:  Solving for rho, Initial residual = 0, Final residual = 0, No Iterations 0
time step continuity errors : sum local = 1.82527e-08, global = -2.3012e-09, cumulative = -2.89577e-07
GAMGPCG:  Solving for p_rgh, Initial residual = 0.00282674, Final residual = 6.83977e-07, No Iterations 3
diagonal:  Solving for rho, Initial residual = 0, Final residual = 0, No Iterations 0
time step continuity errors : sum local = 2.76961e-08, global = 1.8245e-09, cumulative = -2.87753e-07
DILUPBiCGStab:  Solving for omega, Initial residual = 6.01466e-05, Final residual = 7.23983e-10, No Iterations 2
DILUPBiCGStab:  Solving for k, Initial residual = 0.00198381, Final residual = 2.28115e-09, No Iterations 3

ExecutionTime = 3.27 s  ClockTime = 4 s

    Overall     = 0.00122392, 0.01
Time = 275

diagonal:  Solving for rho, Initial residual = 0, Final residual = 0, No Iterations 0

Execution time for mesh.update() = 0 s

DILUPBiCGStab:  Solving for Ux, Initial residual = 0.00818962, Final residual = 9.76569e-09, No Iterations 3
DILUPBiCGStab:  Solving for Uy, Initial residual = 0.0105788, Final residual = 1.4539e-09, No Iterations 3
DILUPBiCGStab:  Solving for O2, Initial residual = 0.0010019, Final residual = 2.0377e-09, No Iterations 3
DILUPBiCGStab:  Solving for H2O, Initial residual = 0.00100208, Final residual = 2.03753e-09, No Iterations 3
DILUPBiCGStab:  Solving for CH4, Initial residual = 0, Final residual = 0, No Iterations 0
DILUPBiCGStab:  Solving for CO2, Initial residual = 0.00100208, Final residual = 2.03753e-09, No Iterations 3
DILUPBiCGStab:  Solving for h, Initial residual = 0.00111933, Final residual = 9.8046e-09, No Iterations 2
min/max(T) = 299.807, 1044.97
GAMGPCG:  Solving for p_rgh, Initial residual = 0.0158759, Final residual = 5.38008e-07, No Iterations 4
diagonal:  Solving for rho, Initial residual = 0, Final residual = 0, No Iterations 0
time step continuity errors : sum local = 2.18423e-08, global = 1.89392e-09, cumulative = -2.85859e-07
GAMGPCG:  Solving for p_rgh, Initial residual = 0.00256573, Final residual = 6.80531e-07, No Iterations 3
diagonal:  Solving for rho, Initial residual = 0, Final residual = 0, No Iterations 0
time step continuity errors : sum local = 2.77648e-08, global = -1.87751e-09, cumulative = -2.87736e-07
DILUPBiCGStab:  Solving for omega, Initial residual = 5.90058e-05, Final residual = 7.61843e-10, No Iterations 2
DILUPBiCGStab:  Solving for k, Initial residual = 0.00198518, Final residual = 1.34679e-09, No Iterations 3

ExecutionTime = 3.39 s  ClockTime = 4 s

    Overall     = 0.0012216, 0.01
Time = 276

diagonal:  Solving for rho, Initial residual = 0, Final residual = 0, No Iterations 0

Execution time for mesh.update() = 0 s

DILUPBiCGStab:  Solving for Ux, Initial residual = 0.00819788, Final residual = 9.68568e-09, No Iterations 3
DILUPBiCGStab:  Solving for Uy, Initial residual = 0.0104436, Final residual = 1.49426e-09, No Iterations 3
DILUPBiCGStab:  Solving for O2, Initial residual = 0.000996459, Final residual = 9.71143e-09, No Iterations 2
DILUPBiCGStab:  Solving for H2O, Initial residual = 0.000996629, Final residual = 9.71136e-09, No Iterations 2
DILUPBiCGStab:  Solving for CH4, Initial residual = 0, Final residual = 0, No Iterations 0
DILUPBiCGStab:  Solving for CO2, Initial residual = 0.000996629, Final residual = 9.71135e-09, No Iterations 2
DILUPBiCGStab:  Solving for h, Initial residual = 0.0011126, Final residual = 8.90124e-09, No Iterations 2
min/max(T) = 299.809, 1044.97
GAMGPCG:  Solving for p_rgh, Initial residual = 0.0156114, Final residual = 4.88679e-07, No Iterations 4
diagonal:  Solving for rho, Initial residual = 0, Final residual = 0, No Iterations 0
time step continuity errors : sum local = 1.97078e-08, global = 2.25882e-09, cumulative = -2.85478e-07
GAMGPCG:  Solving for p_rgh, Initial residual = 0.00254199, Final residual = 6.846e-07, No Iterations 3
diagonal:  Solving for rho, Initial residual = 0, Final residual = 0, No Iterations 0
time step continuity errors : sum local = 2.7629e-08, global = 3.66623e-10, cumulative = -2.85111e-07
DILUPBiCGStab:  Solving for omega, Initial residual = 5.97627e-05, Final residual = 7.78749e-10, No Iterations 2
DILUPBiCGStab:  Solving for k, Initial residual = 0.00200086, Final residual = 1.29293e-09, No Iterations 3

ExecutionTime = 3.5 s  ClockTime = 4 s

    Overall     = 0.00122202, 0.01
Time = 277

diagonal:  Solving for rho, Initial residual = 0, Final residual = 0, No Iterations 0

Execution time for mesh.update() = 0 s

DILUPBiCGStab:  Solving for Ux, Initial residual = 0.00823891, Final residual = 8.26963e-09, No Iterations 3
DILUPBiCGStab:  Solving for Uy, Initial residual = 0.0103199, Final residual = 1.45667e-09, No Iterations 3
DILUPBiCGStab:  Solving for O2, Initial residual = 0.00100803, Final residual = 8.97678e-09, No Iterations 2
DILUPBiCGStab:  Solving for H2O, Initial residual = 0.00100819, Final residual = 8.9767e-09, No Iterations 2
DILUPBiCGStab:  Solving for CH4, Initial residual = 0, Final residual = 0, No Iterations 0
DILUPBiCGStab:  Solving for CO2, Initial residual = 0.00100819, Final residual = 8.97669e-09, No Iterations 2
DILUPBiCGStab:  Solving for h, Initial residual = 0.00112713, Final residual = 8.07374e-09, No Iterations 2
min/max(T) = 299.812, 1044.97
GAMGPCG:  Solving for p_rgh, Initial residual = 0.0156747, Final residual = 4.28005e-07, No Iterations 4
diagonal:  Solving for rho, Initial residual = 0, Final residual = 0, No Iterations 0
time step continuity errors : sum local = 1.74831e-08, global = 6.32199e-10, cumulative = -2.84479e-07
GAMGPCG:  Solving for p_rgh, Initial residual = 0.00242556, Final residual = 6.87533e-07, No Iterations 3
diagonal:  Solving for rho, Initial residual = 0, Final residual = 0, No Iterations 0
time step continuity errors : sum local = 2.77371e-08, global = 3.53572e-10, cumulative = -2.84125e-07
DILUPBiCGStab:  Solving for omega, Initial residual = 5.95091e-05, Final residual = 8.01615e-10, No Iterations 2
DILUPBiCGStab:  Solving for k, Initial residual = 0.00200755, Final residual = 1.32812e-09, No Iterations 3

ExecutionTime = 3.61 s  ClockTime = 4 s

    Overall     = 0.00121958, 0.01
Time = 278

diagonal:  Solving for rho, Initial residual = 0, Final residual = 0, No Iterations 0

Execution time for mesh.update() = 0 s

DILUPBiCGStab:  Solving for Ux, Initial residual = 0.00834459, Final residual = 7.27193e-09, No Iterations 3
DILUPBiCGStab:  Solving for Uy, Initial residual = 0.0102779, Final residual = 1.37806e-09, No Iterations 3
DILUPBiCGStab:  Solving for O2, Initial residual = 0.00100444, Final residual = 8.64832e-09, No Iterations 2
DILUPBiCGStab:  Solving for H2O, Initial residual = 0.0010046, Final residual = 8.64823e-09, No Iterations 2
DILUPBiCGStab:  Solving for CH4, Initial residual = 0, Final residual = 0, No Iterations 0
DILUPBiCGStab:  Solving for CO2, Initial residual = 0.0010046, Final residual = 8.64823e-09, No Iterations 2
DILUPBiCGStab:  Solving for h, Initial residual = 0.00111899, Final residual = 7.45296e-09, No Iterations 2
min/max(T) = 299.814, 1044.97
GAMGPCG:  Solving for p_rgh, Initial residual = 0.0156551, Final residual = 4.64373e-07, No Iterations 4
diagonal:  Solving for rho, Initial residual = 0, Final residual = 0, No Iterations 0
time step continuity errors : sum local = 1.91368e-08, global = -4.16457e-09, cumulative = -2.8829e-07
GAMGPCG:  Solving for p_rgh, Initial residual = 0.00259814, Final residual = 7.12931e-07, No Iterations 3
diagonal:  Solving for rho, Initial residual = 0, Final residual = 0, No Iterations 0
time step continuity errors : sum local = 2.89878e-08, global = 2.35741e-09, cumulative = -2.85932e-07
DILUPBiCGStab:  Solving for omega, Initial residual = 6.00286e-05, Final residual = 7.68183e-10, No Iterations 2
DILUPBiCGStab:  Solving for k, Initial residual = 0.00201552, Final residual = 1.55015e-09, No Iterations 3

ExecutionTime = 3.72 s  ClockTime = 4 s

    Overall     = 0.00122001, 0.01
Time = 279

diagonal:  Solving for rho, Initial residual = 0, Final residual = 0, No Iterations 0

Execution time for mesh.update() = 0 s

DILUPBiCGStab:  Solving for Ux, Initial residual = 0.0083152, Final residual = 7.44805e-09, No Iterations 3
DILUPBiCGStab:  Solving for Uy, Initial residual = 0.01015, Final residual = 1.3071e-09, No Iterations 3
DILUPBiCGStab:  Solving for O2, Initial residual = 0.00101144, Final residual = 8.25373e-09, No Iterations 2
DILUPBiCGStab:  Solving for H2O, Initial residual = 0.0010116, Final residual = 8.25364e-09, No Iterations 2
DILUPBiCGStab:  Solving for CH4, Initial residual = 0, Final residual = 0, No Iterations 0
DILUPBiCGStab:  Solving for CO2, Initial residual = 0.0010116, Final residual = 8.25364e-09, No Iterations 2
DILUPBiCGStab:  Solving for h, Initial residual = 0.00112915, Final residual = 7.34649e-09, No Iterations 2
min/max(T) = 299.818, 1044.97
GAMGPCG:  Solving for p_rgh, Initial residual = 0.0150458, Final residual = 4.15157e-07, No Iterations 4
diagonal:  Solving for rho, Initial residual = 0, Final residual = 0, No Iterations 0
time step continuity errors : sum local = 1.70922e-08, global = -3.41921e-09, cumulative = -2.89352e-07
GAMGPCG:  Solving for p_rgh, Initial residual = 0.00227586, Final residual = 7.30633e-07, No Iterations 3
diagonal:  Solving for rho, Initial residual = 0, Final residual = 0, No Iterations 0
time step continuity errors : sum local = 2.92257e-08, global = 1.15513e-09, cumulative = -2.88196e-07
DILUPBiCGStab:  Solving for omega, Initial residual = 6.00875e-05, Final residual = 7.12165e-10, No Iterations 2
DILUPBiCGStab:  Solving for k, Initial residual = 0.00202222, Final residual = 1.87719e-09, No Iterations 3

ExecutionTime = 3.83 s  ClockTime = 4 s

    Overall     = 0.00121736, 0.01
Time = 280

diagonal:  Solving for rho, Initial residual = 0, Final residual = 0, No Iterations 0

Execution time for mesh.update() = 0 s

DILUPBiCGStab:  Solving for Ux, Initial residual = 0.00836328, Final residual = 7.16372e-09, No Iterations 3
DILUPBiCGStab:  Solving for Uy, Initial residual = 0.0100412, Final residual = 1.23379e-09, No Iterations 3
GAMGPCG:  Solving for G, Initial residual = 0.0890398, Final residual = 6.91409e-05, No Iterations 5
DILUPBiCGStab:  Solving for O2, Initial residual = 0.00100167, Final residual = 7.66277e-09, No Iterations 2
DILUPBiCGStab:  Solving for H2O, Initial residual = 0.00100174, Final residual = 7.66268e-09, No Iterations 2
DILUPBiCGStab:  Solving for CH4, Initial residual = 0, Final residual = 0, No Iterations 0
DILUPBiCGStab:  Solving for CO2, Initial residual = 0.00100174, Final residual = 7.66268e-09, No Iterations 2
DILUPBiCGStab:  Solving for h, Initial residual = 0.0011149, Final residual = 7.07903e-09, No Iterations 2
min/max(T) = 299.822, 1044.97
GAMGPCG:  Solving for p_rgh, Initial residual = 0.0145519, Final residual = 5.24942e-07, No Iterations 4
diagonal:  Solving for rho, Initial residual = 0, Final residual = 0, No Iterations 0
time step continuity errors : sum local = 2.12975e-08, global = 4.92777e-10, cumulative = -2.87704e-07
GAMGPCG:  Solving for p_rgh, Initial residual = 0.00247464, Final residual = 6.22133e-07, No Iterations 3
diagonal:  Solving for rho, Initial residual = 0, Final residual = 0, No Iterations 0
time step continuity errors : sum local = 2.48977e-08, global = 2.74132e-10, cumulative = -2.8743e-07
DILUPBiCGStab:  Solving for omega, Initial residual = 6.02456e-05, Final residual = 6.28165e-10, No Iterations 2
DILUPBiCGStab:  Solving for k, Initial residual = 0.00202568, Final residual = 2.09698e-09, No Iterations 3

ExecutionTime = 4.08 s  ClockTime = 4 s

    Overall     = 0.00121746, 0.01
Time = 281

diagonal:  Solving for rho, Initial residual = 0, Final residual = 0, No Iterations 0

Execution time for mesh.update() = 0 s

DILUPBiCGStab:  Solving for Ux, Initial residual = 0.00836267, Final residual = 6.93315e-09, No Iterations 3
DILUPBiCGStab:  Solving for Uy, Initial residual = 0.00992669, Final residual = 9.80509e-09, No Iterations 3
DILUPBiCGStab:  Solving for O2, Initial residual = 0.00100343, Final residual = 6.42256e-09, No Iterations 2
DILUPBiCGStab:  Solving for H2O, Initial residual = 0.00100358, Final residual = 6.42248e-09, No Iterations 2
DILUPBiCGStab:  Solving for CH4, Initial residual = 0, Final residual = 0, No Iterations 0
DILUPBiCGStab:  Solving for CO2, Initial residual = 0.00100358, Final residual = 6.42248e-09, No Iterations 2
DILUPBiCGStab:  Solving for h, Initial residual = 0.00111751, Final residual = 6.03551e-09, No Iterations 2
min/max(T) = 299.826, 1044.97
GAMGPCG:  Solving for p_rgh, Initial residual = 0.0144542, Final residual = 6.12003e-07, No Iterations 4
diagonal:  Solving for rho, Initial residual = 0, Final residual = 0, No Iterations 0
time step continuity errors : sum local = 2.44441e-08, global = 1.83201e-09, cumulative = -2.85598e-07
GAMGPCG:  Solving for p_rgh, Initial residual = 0.00223945, Final residual = 6.59302e-07, No Iterations 3
diagonal:  Solving for rho, Initial residual = 0, Final residual = 0, No Iterations 0
time step continuity errors : sum local = 2.64178e-08, global = -5.72988e-13, cumulative = -2.85598e-07
DILUPBiCGStab:  Solving for omega, Initial residual = 6.04477e-05, Final residual = 9.22721e-09, No Iterations 2
DILUPBiCGStab:  Solving for k, Initial residual = 0.00203562, Final residual = 2.14537e-09, No Iterations 3

ExecutionTime = 4.19 s  ClockTime = 4 s

    Overall     = 0.00121533, 0.01
Time = 282

diagonal:  Solving for rho, Initial residual = 0, Final residual = 0, No Iterations 0

Execution time for mesh.update() = 0 s

DILUPBiCGStab:  Solving for Ux, Initial residual = 0.0084327, Final residual = 6.9935e-09, No Iterations 3
DILUPBiCGStab:  Solving for Uy, Initial residual = 0.00983748, Final residual = 1.1484e-09, No Iterations 3
DILUPBiCGStab:  Solving for O2, Initial residual = 0.00101624, Final residual = 5.859e-09, No Iterations 2
DILUPBiCGStab:  Solving for H2O, Initial residual = 0.00101638, Final residual = 5.85891e-09, No Iterations 2
DILUPBiCGStab:  Solving for CH4, Initial residual = 0, Final residual = 0, No Iterations 0
DILUPBiCGStab:  Solving for CO2, Initial residual = 0.00101638, Final residual = 5.85891e-09, No Iterations 2
DILUPBiCGStab:  Solving for h, Initial residual = 0.00113732, Final residual = 5.50027e-09, No Iterations 2
min/max(T) = 299.831, 1044.97
GAMGPCG:  Solving for p_rgh, Initial residual = 0.015259, Final residual = 5.11348e-07, No Iterations 4
diagonal:  Solving for rho, Initial residual = 0, Final residual = 0, No Iterations 0
time step continuity errors : sum local = 2.07117e-08, global = -6.60599e-10, cumulative = -2.86259e-07
GAMGPCG:  Solving for p_rgh, Initial residual = 0.00235099, Final residual = 6.80132e-07, No Iterations 3
diagonal:  Solving for rho, Initial residual = 0, Final residual = 0, No Iterations 0
time step continuity errors : sum local = 2.70597e-08, global = 2.79875e-09, cumulative = -2.8346e-07
DILUPBiCGStab:  Solving for omega, Initial residual = 6.13921e-05, Final residual = 9.06439e-09, No Iterations 2
DILUPBiCGStab:  Solving for k, Initial residual = 0.00204645, Final residual = 1.86796e-09, No Iterations 3

ExecutionTime = 4.31 s  ClockTime = 5 s

    Overall     = 0.00121612, 0.01
Time = 283

diagonal:  Solving for rho, Initial residual = 0, Final residual = 0, No Iterations 0

Execution time for mesh.update() = 0 s

DILUPBiCGStab:  Solving for Ux, Initial residual = 0.00847002, Final residual = 7.26668e-09, No Iterations 3
DILUPBiCGStab:  Solving for Uy, Initial residual = 0.00980877, Final residual = 9.56401e-10, No Iterations 3
DILUPBiCGStab:  Solving for O2, Initial residual = 0.00101674, Final residual = 5.73324e-09, No Iterations 2
DILUPBiCGStab:  Solving for H2O, Initial residual = 0.00101688, Final residual = 5.73318e-09, No Iterations 2
DILUPBiCGStab:  Solving for CH4, Initial residual = 0, Final residual = 0, No Iterations 0
DILUPBiCGStab:  Solving for CO2, Initial residual = 0.00101688, Final residual = 5.73318e-09, No Iterations 2
DILUPBiCGStab:  Solving for h, Initial residual = 0.00113854, Final residual = 5.48445e-09, No Iterations 2
min/max(T) = 299.836, 1044.97
GAMGPCG:  Solving for p_rgh, Initial residual = 0.0144841, Final residual = 5.76818e-07, No Iterations 4
diagonal:  Solving for rho, Initial residual = 0, Final residual = 0, No Iterations 0
time step continuity errors : sum local = 2.31175e-08, global = -4.46817e-09, cumulative = -2.87928e-07
GAMGPCG:  Solving for p_rgh, Initial residual = 0.00227804, Final residual = 7.90171e-07, No Iterations 3
diagonal:  Solving for rho, Initial residual = 0, Final residual = 0, No Iterations 0
time step continuity errors : sum local = 3.14857e-08, global = 5.18152e-09, cumulative = -2.82747e-07
DILUPBiCGStab:  Solving for omega, Initial residual = 6.15468e-05, Final residual = 8.12742e-09, No Iterations 2
DILUPBiCGStab:  Solving for k, Initial residual = 0.00205411, Final residual = 1.7838e-09, No Iterations 3

ExecutionTime = 4.42 s  ClockTime = 5 s

    Overall     = 0.00121478, 0.01
Time = 284

diagonal:  Solving for rho, Initial residual = 0, Final residual = 0, No Iterations 0

Execution time for mesh.update() = 0 s

DILUPBiCGStab:  Solving for Ux, Initial residual = 0.00849328, Final residual = 7.47598e-09, No Iterations 3
DILUPBiCGStab:  Solving for Uy, Initial residual = 0.00971806, Final residual = 9.87813e-10, No Iterations 3
DILUPBiCGStab:  Solving for O2, Initial residual = 0.00102534, Final residual = 5.54116e-09, No Iterations 2
DILUPBiCGStab:  Solving for H2O, Initial residual = 0.00102547, Final residual = 5.54112e-09, No Iterations 2
DILUPBiCGStab:  Solving for CH4, Initial residual = 0, Final residual = 0, No Iterations 0
DILUPBiCGStab:  Solving for CO2, Initial residual = 0.00102547, Final residual = 5.54112e-09, No Iterations 2
DILUPBiCGStab:  Solving for h, Initial residual = 0.00115155, Final residual = 5.06955e-09, No Iterations 2
min/max(T) = 299.842, 1044.97
GAMGPCG:  Solving for p_rgh, Initial residual = 0.0152311, Final residual = 4.6876e-07, No Iterations 4
diagonal:  Solving for rho, Initial residual = 0, Final residual = 0, No Iterations 0
time step continuity errors : sum local = 1.88974e-08, global = -3.07644e-09, cumulative = -2.85823e-07
GAMGPCG:  Solving for p_rgh, Initial residual = 0.00220047, Final residual = 8.53018e-07, No Iterations 3
diagonal:  Solving for rho, Initial residual = 0, Final residual = 0, No Iterations 0
time step continuity errors : sum local = 3.3943e-08, global = 5.25015e-09, cumulative = -2.80573e-07
DILUPBiCGStab:  Solving for omega, Initial residual = 6.23514e-05, Final residual = 7.62555e-09, No Iterations 2
DILUPBiCGStab:  Solving for k, Initial residual = 0.00206499, Final residual = 1.44021e-09, No Iterations 3

ExecutionTime = 4.53 s  ClockTime = 5 s

    Overall     = 0.00121601, 0.01
Time = 285

diagonal:  Solving for rho, Initial residual = 0, Final residual = 0, No Iterations 0

Execution time for mesh.update() = 0 s

DILUPBiCGStab:  Solving for Ux, Initial residual = 0.00858854, Final residual = 8.20118e-09, No Iterations 3
DILUPBiCGStab:  Solving for Uy, Initial residual = 0.00970727, Final residual = 9.73015e-09, No Iterations 3
DILUPBiCGStab:  Solving for O2, Initial residual = 0.00101812, Final residual = 6.11837e-09, No Iterations 2
DILUPBiCGStab:  Solving for H2O, Initial residual = 0.00101818, Final residual = 6.11832e-09, No Iterations 2
DILUPBiCGStab:  Solving for CH4, Initial residual = 0, Final residual = 0, No Iterations 0
DILUPBiCGStab:  Solving for CO2, Initial residual = 0.00101818, Final residual = 6.11832e-09, No Iterations 2
DILUPBiCGStab:  Solving for h, Initial residual = 0.00114383, Final residual = 5.67478e-09, No Iterations 2
min/max(T) = 299.85, 1044.97
GAMGPCG:  Solving for p_rgh, Initial residual = 0.0148868, Final residual = 5.55098e-07, No Iterations 4
diagonal:  Solving for rho, Initial residual = 0, Final residual = 0, No Iterations 0
time step continuity errors : sum local = 2.24745e-08, global = -4.01157e-09, cumulative = -2.84584e-07
GAMGPCG:  Solving for p_rgh, Initial residual = 0.00232244, Final residual = 7.325e-07, No Iterations 3
diagonal:  Solving for rho, Initial residual = 0, Final residual = 0, No Iterations 0
time step continuity errors : sum local = 2.91552e-08, global = 5.68552e-09, cumulative = -2.78899e-07
DILUPBiCGStab:  Solving for omega, Initial residual = 6.23248e-05, Final residual = 8.11833e-09, No Iterations 2
DILUPBiCGStab:  Solving for k, Initial residual = 0.00206447, Final residual = 3.32436e-09, No Iterations 3

ExecutionTime = 4.64 s  ClockTime = 5 s

    Overall     = 0.00121455, 0.01
Time = 286

diagonal:  Solving for rho, Initial residual = 0, Final residual = 0, No Iterations 0

Execution time for mesh.update() = 0 s

DILUPBiCGStab:  Solving for Ux, Initial residual = 0.00853265, Final residual = 8.27796e-09, No Iterations 3
DILUPBiCGStab:  Solving for Uy, Initial residual = 0.00956403, Final residual = 9.11602e-09, No Iterations 3
DILUPBiCGStab:  Solving for O2, Initial residual = 0.00102651, Final residual = 5.45571e-09, No Iterations 2
DILUPBiCGStab:  Solving for H2O, Initial residual = 0.00102656, Final residual = 5.45565e-09, No Iterations 2
DILUPBiCGStab:  Solving for CH4, Initial residual = 0, Final residual = 0, No Iterations 0
DILUPBiCGStab:  Solving for CO2, Initial residual = 0.00102656, Final residual = 5.45565e-09, No Iterations 2
DILUPBiCGStab:  Solving for h, Initial residual = 0.00115974, Final residual = 5.30163e-09, No Iterations 2
min/max(T) = 299.857, 1044.97
GAMGPCG:  Solving for p_rgh, Initial residual = 0.0150481, Final residual = 5.86961e-07, No Iterations 4
diagonal:  Solving for rho, Initial residual = 0, Final residual = 0, No Iterations 0
time step continuity errors : sum local = 2.36914e-08, global = -1.13092e-09, cumulative = -2.8003e-07
GAMGPCG:  Solving for p_rgh, Initial residual = 0.00218978, Final residual = 7.79324e-07, No Iterations 3
diagonal:  Solving for rho, Initial residual = 0, Final residual = 0, No Iterations 0
time step continuity errors : sum local = 3.08756e-08, global = 4.43994e-09, cumulative = -2.7559e-07
DILUPBiCGStab:  Solving for omega, Initial residual = 6.26502e-05, Final residual = 7.68872e-09, No Iterations 2
DILUPBiCGStab:  Solving for k, Initial residual = 0.0020657, Final residual = 2.16927e-09, No Iterations 3

ExecutionTime = 4.75 s  ClockTime = 5 s

    Overall     = 0.00121554, 0.01
Time = 287

diagonal:  Solving for rho, Initial residual = 0, Final residual = 0, No Iterations 0

Execution time for mesh.update() = 0 s

DILUPBiCGStab:  Solving for Ux, Initial residual = 0.00860794, Final residual = 8.83204e-09, No Iterations 3
DILUPBiCGStab:  Solving for Uy, Initial residual = 0.00954982, Final residual = 1.06356e-09, No Iterations 3
DILUPBiCGStab:  Solving for O2, Initial residual = 0.00102757, Final residual = 5.87975e-09, No Iterations 2
DILUPBiCGStab:  Solving for H2O, Initial residual = 0.00102761, Final residual = 5.87976e-09, No Iterations 2
DILUPBiCGStab:  Solving for CH4, Initial residual = 0, Final residual = 0, No Iterations 0
DILUPBiCGStab:  Solving for CO2, Initial residual = 0.00102761, Final residual = 5.87976e-09, No Iterations 2
DILUPBiCGStab:  Solving for h, Initial residual = 0.00116033, Final residual = 5.4805e-09, No Iterations 2
min/max(T) = 299.866, 1044.97
GAMGPCG:  Solving for p_rgh, Initial residual = 0.0149071, Final residual = 6.23585e-07, No Iterations 4
diagonal:  Solving for rho, Initial residual = 0, Final residual = 0, No Iterations 0
time step continuity errors : sum local = 2.51493e-08, global = -3.53706e-09, cumulative = -2.79127e-07
GAMGPCG:  Solving for p_rgh, Initial residual = 0.00233534, Final residual = 7.65256e-07, No Iterations 3
diagonal:  Solving for rho, Initial residual = 0, Final residual = 0, No Iterations 0
time step continuity errors : sum local = 3.03809e-08, global = 6.7306e-09, cumulative = -2.72396e-07
DILUPBiCGStab:  Solving for omega, Initial residual = 6.30692e-05, Final residual = 7.73565e-09, No Iterations 2
DILUPBiCGStab:  Solving for k, Initial residual = 0.00206877, Final residual = 3.09915e-09, No Iterations 3

ExecutionTime = 4.86 s  ClockTime = 5 s

    Overall     = 0.00121391, 0.01
Time = 288

diagonal:  Solving for rho, Initial residual = 0, Final residual = 0, No Iterations 0

Execution time for mesh.update() = 0 s

DILUPBiCGStab:  Solving for Ux, Initial residual = 0.0085676, Final residual = 9.01563e-09, No Iterations 3
DILUPBiCGStab:  Solving for Uy, Initial residual = 0.00940077, Final residual = 9.70838e-09, No Iterations 3
DILUPBiCGStab:  Solving for O2, Initial residual = 0.00103353, Final residual = 6.52896e-09, No Iterations 2
DILUPBiCGStab:  Solving for H2O, Initial residual = 0.00103362, Final residual = 6.52905e-09, No Iterations 2
DILUPBiCGStab:  Solving for CH4, Initial residual = 0, Final residual = 0, No Iterations 0
DILUPBiCGStab:  Solving for CO2, Initial residual = 0.00103362, Final residual = 6.52905e-09, No Iterations 2
DILUPBiCGStab:  Solving for h, Initial residual = 0.00116863, Final residual = 5.98023e-09, No Iterations 2
min/max(T) = 299.877, 1044.97
GAMGPCG:  Solving for p_rgh, Initial residual = 0.0151272, Final residual = 6.49478e-07, No Iterations 4
diagonal:  Solving for rho, Initial residual = 0, Final residual = 0, No Iterations 0
time step continuity errors : sum local = 2.61332e-08, global = -4.3096e-09, cumulative = -2.76706e-07
GAMGPCG:  Solving for p_rgh, Initial residual = 0.00208429, Final residual = 9.69882e-07, No Iterations 3
diagonal:  Solving for rho, Initial residual = 0, Final residual = 0, No Iterations 0
time step continuity errors : sum local = 3.83129e-08, global = 6.76799e-09, cumulative = -2.69938e-07
DILUPBiCGStab:  Solving for omega, Initial residual = 6.3428e-05, Final residual = 7.4186e-09, No Iterations 2
DILUPBiCGStab:  Solving for k, Initial residual = 0.0020717, Final residual = 8.94455e-09, No Iterations 3

ExecutionTime = 4.97 s  ClockTime = 5 s

    Overall     = 0.00121476, 0.01
Time = 289

diagonal:  Solving for rho, Initial residual = 0, Final residual = 0, No Iterations 0

Execution time for mesh.update() = 0 s

DILUPBiCGStab:  Solving for Ux, Initial residual = 0.00867085, Final residual = 9.19716e-09, No Iterations 3
DILUPBiCGStab:  Solving for Uy, Initial residual = 0.00937069, Final residual = 9.82699e-09, No Iterations 3
DILUPBiCGStab:  Solving for O2, Initial residual = 0.00104069, Final residual = 7.50032e-09, No Iterations 2
DILUPBiCGStab:  Solving for H2O, Initial residual = 0.00104076, Final residual = 7.5004e-09, No Iterations 2
DILUPBiCGStab:  Solving for CH4, Initial residual = 0, Final residual = 0, No Iterations 0
DILUPBiCGStab:  Solving for CO2, Initial residual = 0.00104076, Final residual = 7.5004e-09, No Iterations 2
DILUPBiCGStab:  Solving for h, Initial residual = 0.00117667, Final residual = 6.97262e-09, No Iterations 2
min/max(T) = 299.888, 1044.97
GAMGPCG:  Solving for p_rgh, Initial residual = 0.014288, Final residual = 6.2788e-07, No Iterations 4
diagonal:  Solving for rho, Initial residual = 0, Final residual = 0, No Iterations 0
time step continuity errors : sum local = 2.48318e-08, global = -3.8647e-09, cumulative = -2.73803e-07
GAMGPCG:  Solving for p_rgh, Initial residual = 0.00226315, Final residual = 9.43036e-07, No Iterations 3
diagonal:  Solving for rho, Initial residual = 0, Final residual = 0, No Iterations 0
time step continuity errors : sum local = 3.7469e-08, global = 6.52617e-09, cumulative = -2.67277e-07
DILUPBiCGStab:  Solving for omega, Initial residual = 6.25712e-05, Final residual = 7.56163e-09, No Iterations 2
DILUPBiCGStab:  Solving for k, Initial residual = 0.00207118, Final residual = 1.65946e-09, No Iterations 3

ExecutionTime = 5.08 s  ClockTime = 5 s

    Overall     = 0.00121287, 0.01
Time = 290

diagonal:  Solving for rho, Initial residual = 0, Final residual = 0, No Iterations 0

Execution time for mesh.update() = 0 s

DILUPBiCGStab:  Solving for Ux, Initial residual = 0.00857099, Final residual = 8.92121e-09, No Iterations 3
DILUPBiCGStab:  Solving for Uy, Initial residual = 0.00923215, Final residual = 1.42275e-09, No Iterations 3
GAMGPCG:  Solving for G, Initial residual = 0.0935806, Final residual = 2.27821e-05, No Iterations 6
DILUPBiCGStab:  Solving for O2, Initial residual = 0.00103684, Final residual = 8.44114e-09, No Iterations 2
DILUPBiCGStab:  Solving for H2O, Initial residual = 0.00103686, Final residual = 8.44122e-09, No Iterations 2
DILUPBiCGStab:  Solving for CH4, Initial residual = 0, Final residual = 0, No Iterations 0
DILUPBiCGStab:  Solving for CO2, Initial residual = 0.00103686, Final residual = 8.44122e-09, No Iterations 2
DILUPBiCGStab:  Solving for h, Initial residual = 0.00116917, Final residual = 7.55814e-09, No Iterations 2
min/max(T) = 299.9, 1044.97
GAMGPCG:  Solving for p_rgh, Initial residual = 0.0142471, Final residual = 5.85695e-07, No Iterations 4
diagonal:  Solving for rho, Initial residual = 0, Final residual = 0, No Iterations 0
time step continuity errors : sum local = 2.34463e-08, global = -3.6806e-09, cumulative = -2.70957e-07
GAMGPCG:  Solving for p_rgh, Initial residual = 0.00209008, Final residual = 1.42005e-07, No Iterations 4
diagonal:  Solving for rho, Initial residual = 0, Final residual = 0, No Iterations 0
time step continuity errors : sum local = 5.6986e-09, global = 5.26473e-10, cumulative = -2.70431e-07
DILUPBiCGStab:  Solving for omega, Initial residual = 6.29562e-05, Final residual = 7.75218e-09, No Iterations 2
DILUPBiCGStab:  Solving for k, Initial residual = 0.00207038, Final residual = 1.8678e-09, No Iterations 3

ExecutionTime = 5.34 s  ClockTime = 6 s

    Overall     = 0.00121363, 0.01
Time = 291

diagonal:  Solving for rho, Initial residual = 0, Final residual = 0, No Iterations 0

Execution time for mesh.update() = 0 s

DILUPBiCGStab:  Solving for Ux, Initial residual = 0.00859119, Final residual = 8.68076e-09, No Iterations 3
DILUPBiCGStab:  Solving for Uy, Initial residual = 0.00909763, Final residual = 1.54396e-09, No Iterations 3
DILUPBiCGStab:  Solving for O2, Initial residual = 0.00104138, Final residual = 8.87377e-09, No Iterations 2
DILUPBiCGStab:  Solving for H2O, Initial residual = 0.00104139, Final residual = 8.87379e-09, No Iterations 2
DILUPBiCGStab:  Solving for CH4, Initial residual = 0, Final residual = 0, No Iterations 0
DILUPBiCGStab:  Solving for CO2, Initial residual = 0.00104139, Final residual = 8.87379e-09, No Iterations 2
DILUPBiCGStab:  Solving for h, Initial residual = 0.00117634, Final residual = 8.37401e-09, No Iterations 2
min/max(T) = 299.914, 1044.97
GAMGPCG:  Solving for p_rgh, Initial residual = 0.0148029, Final residual = 6.4228e-07, No Iterations 4
diagonal:  Solving for rho, Initial residual = 0, Final residual = 0, No Iterations 0
time step continuity errors : sum local = 2.59903e-08, global = -3.74632e-09, cumulative = -2.74177e-07
GAMGPCG:  Solving for p_rgh, Initial residual = 0.00214153, Final residual = 8.24768e-07, No Iterations 3
diagonal:  Solving for rho, Initial residual = 0, Final residual = 0, No Iterations 0
time step continuity errors : sum local = 3.25634e-08, global = 7.57366e-09, cumulative = -2.66603e-07
DILUPBiCGStab:  Solving for omega, Initial residual = 6.26694e-05, Final residual = 8.21407e-09, No Iterations 2
DILUPBiCGStab:  Solving for k, Initial residual = 0.00207298, Final residual = 1.64649e-09, No Iterations 3

ExecutionTime = 5.45 s  ClockTime = 6 s

    Overall     = 0.00121183, 0.01
Time = 292

diagonal:  Solving for rho, Initial residual = 0, Final residual = 0, No Iterations 0

Execution time for mesh.update() = 0 s

DILUPBiCGStab:  Solving for Ux, Initial residual = 0.00862439, Final residual = 8.73594e-09, No Iterations 3
DILUPBiCGStab:  Solving for Uy, Initial residual = 0.00900046, Final residual = 1.57763e-09, No Iterations 3
DILUPBiCGStab:  Solving for O2, Initial residual = 0.00104771, Final residual = 9.33665e-09, No Iterations 2
DILUPBiCGStab:  Solving for H2O, Initial residual = 0.00104771, Final residual = 9.33668e-09, No Iterations 2
DILUPBiCGStab:  Solving for CH4, Initial residual = 0, Final residual = 0, No Iterations 0
DILUPBiCGStab:  Solving for CO2, Initial residual = 0.00104771, Final residual = 9.33668e-09, No Iterations 2
DILUPBiCGStab:  Solving for h, Initial residual = 0.00118683, Final residual = 8.76798e-09, No Iterations 2
min/max(T) = 299.929, 1044.97
GAMGPCG:  Solving for p_rgh, Initial residual = 0.0145325, Final residual = 6.10191e-07, No Iterations 4
diagonal:  Solving for rho, Initial residual = 0, Final residual = 0, No Iterations 0
time step continuity errors : sum local = 2.47255e-08, global = -3.48876e-09, cumulative = -2.70092e-07
GAMGPCG:  Solving for p_rgh, Initial residual = 0.00205618, Final residual = 1.52808e-07, No Iterations 4
diagonal:  Solving for rho, Initial residual = 0, Final residual = 0, No Iterations 0
time step continuity errors : sum local = 6.19978e-09, global = 5.30881e-10, cumulative = -2.69561e-07
DILUPBiCGStab:  Solving for omega, Initial residual = 6.37115e-05, Final residual = 8.53202e-09, No Iterations 2
DILUPBiCGStab:  Solving for k, Initial residual = 0.00207905, Final residual = 1.49253e-09, No Iterations 3

ExecutionTime = 5.56 s  ClockTime = 6 s

[...]

Execution time for mesh.update() = 0 s

DILUPBiCGStab:  Solving for Ux, Initial residual = 0.00443186, Final residual = 8.28269e-09, No Iterations 3
DILUPBiCGStab:  Solving for Uy, Initial residual = 0.00372135, Final residual = 4.56113e-09, No Iterations 3
GAMGPCG:  Solving for G, Initial residual = 0.176209, Final residual = 4.79778e-05, No Iterations 6
DILUPBiCGStab:  Solving for O2, Initial residual = 0.00165397, Final residual = 1.96778e-09, No Iterations 3
DILUPBiCGStab:  Solving for H2O, Initial residual = 0.001654, Final residual = 1.96776e-09, No Iterations 3
DILUPBiCGStab:  Solving for CH4, Initial residual = 0, Final residual = 0, No Iterations 0
DILUPBiCGStab:  Solving for CO2, Initial residual = 0.001654, Final residual = 1.96776e-09, No Iterations 3
DILUPBiCGStab:  Solving for h, Initial residual = 0.00196875, Final residual = 2.11149e-09, No Iterations 3
min/max(T) = 299.857, 1044.97
GAMGPCG:  Solving for p_rgh, Initial residual = 0.0218313, Final residual = 3.15103e-07, No Iterations 5
diagonal:  Solving for rho, Initial residual = 0, Final residual = 0, No Iterations 0
time step continuity errors : sum local = 9.79409e-09, global = -1.23988e-10, cumulative = 5.83334e-07
GAMGPCG:  Solving for p_rgh, Initial residual = 0.00347887, Final residual = 3.83126e-07, No Iterations 4
diagonal:  Solving for rho, Initial residual = 0, Final residual = 0, No Iterations 0
time step continuity errors : sum local = 1.18774e-08, global = 2.64704e-09, cumulative = 5.85981e-07
DILUPBiCGStab:  Solving for omega, Initial residual = 6.6242e-05, Final residual = 1.15625e-09, No Iterations 2
DILUPBiCGStab:  Solving for k, Initial residual = 0.00263107, Final residual = 1.74434e-09, No Iterations 3

ExecutionTime = 288.76 s  ClockTime = 289 s

    Overall     = 0.00128868, 0.01
Time = 2491

diagonal:  Solving for rho, Initial residual = 0, Final residual = 0, No Iterations 0

Execution time for mesh.update() = 0 s

DILUPBiCGStab:  Solving for Ux, Initial residual = 0.00445025, Final residual = 6.77798e-09, No Iterations 3
DILUPBiCGStab:  Solving for Uy, Initial residual = 0.003752, Final residual = 4.53171e-09, No Iterations 3
DILUPBiCGStab:  Solving for O2, Initial residual = 0.00163174, Final residual = 2.01684e-09, No Iterations 3
DILUPBiCGStab:  Solving for H2O, Initial residual = 0.0016317, Final residual = 2.01682e-09, No Iterations 3
DILUPBiCGStab:  Solving for CH4, Initial residual = 0, Final residual = 0, No Iterations 0
DILUPBiCGStab:  Solving for CO2, Initial residual = 0.0016317, Final residual = 2.01682e-09, No Iterations 3
DILUPBiCGStab:  Solving for h, Initial residual = 0.00193097, Final residual = 2.16064e-09, No Iterations 3
min/max(T) = 299.902, 1044.97
GAMGPCG:  Solving for p_rgh, Initial residual = 0.0203481, Final residual = 2.97497e-07, No Iterations 5
diagonal:  Solving for rho, Initial residual = 0, Final residual = 0, No Iterations 0
time step continuity errors : sum local = 9.48264e-09, global = -1.66121e-10, cumulative = 5.85815e-07
GAMGPCG:  Solving for p_rgh, Initial residual = 0.00346616, Final residual = 3.88566e-07, No Iterations 4
diagonal:  Solving for rho, Initial residual = 0, Final residual = 0, No Iterations 0
time step continuity errors : sum local = 1.19563e-08, global = 2.28996e-09, cumulative = 5.88105e-07
DILUPBiCGStab:  Solving for omega, Initial residual = 6.6156e-05, Final residual = 1.17271e-09, No Iterations 2
DILUPBiCGStab:  Solving for k, Initial residual = 0.00262694, Final residual = 1.77803e-09, No Iterations 3

ExecutionTime = 288.88 s  ClockTime = 289 s

    Overall     = 0.00128776, 0.01
Time = 2492

diagonal:  Solving for rho, Initial residual = 0, Final residual = 0, No Iterations 0

Execution time for mesh.update() = 0 s

DILUPBiCGStab:  Solving for Ux, Initial residual = 0.00443255, Final residual = 6.68964e-09, No Iterations 3
DILUPBiCGStab:  Solving for Uy, Initial residual = 0.00370083, Final residual = 4.43045e-09, No Iterations 3
DILUPBiCGStab:  Solving for O2, Initial residual = 0.00162583, Final residual = 2.07214e-09, No Iterations 3
DILUPBiCGStab:  Solving for H2O, Initial residual = 0.00162574, Final residual = 2.07212e-09, No Iterations 3
DILUPBiCGStab:  Solving for CH4, Initial residual = 0, Final residual = 0, No Iterations 0
DILUPBiCGStab:  Solving for CO2, Initial residual = 0.00162574, Final residual = 2.07212e-09, No Iterations 3
DILUPBiCGStab:  Solving for h, Initial residual = 0.00192032, Final residual = 2.21047e-09, No Iterations 3
min/max(T) = 299.959, 1044.97
GAMGPCG:  Solving for p_rgh, Initial residual = 0.0206676, Final residual = 3.31764e-07, No Iterations 5
diagonal:  Solving for rho, Initial residual = 0, Final residual = 0, No Iterations 0
time step continuity errors : sum local = 1.04144e-08, global = -1.90491e-11, cumulative = 5.88086e-07
GAMGPCG:  Solving for p_rgh, Initial residual = 0.00339498, Final residual = 4.12315e-07, No Iterations 4
diagonal:  Solving for rho, Initial residual = 0, Final residual = 0, No Iterations 0
time step continuity errors : sum local = 1.2614e-08, global = 2.1369e-09, cumulative = 5.90223e-07
DILUPBiCGStab:  Solving for omega, Initial residual = 6.64679e-05, Final residual = 1.18697e-09, No Iterations 2
DILUPBiCGStab:  Solving for k, Initial residual = 0.00263338, Final residual = 1.75311e-09, No Iterations 3

ExecutionTime = 289 s  ClockTime = 289 s

    Overall     = 0.00129179, 0.01
Time = 2493

diagonal:  Solving for rho, Initial residual = 0, Final residual = 0, No Iterations 0

Execution time for mesh.update() = 0 s

DILUPBiCGStab:  Solving for Ux, Initial residual = 0.00443186, Final residual = 6.58735e-09, No Iterations 3
DILUPBiCGStab:  Solving for Uy, Initial residual = 0.00369992, Final residual = 4.90416e-09, No Iterations 3
DILUPBiCGStab:  Solving for O2, Initial residual = 0.00160754, Final residual = 2.20201e-09, No Iterations 3
DILUPBiCGStab:  Solving for H2O, Initial residual = 0.00160746, Final residual = 2.202e-09, No Iterations 3
DILUPBiCGStab:  Solving for CH4, Initial residual = 0, Final residual = 0, No Iterations 0
DILUPBiCGStab:  Solving for CO2, Initial residual = 0.00160746, Final residual = 2.202e-09, No Iterations 3
DILUPBiCGStab:  Solving for h, Initial residual = 0.00189477, Final residual = 2.32105e-09, No Iterations 3
min/max(T) = 300, 1044.97
GAMGPCG:  Solving for p_rgh, Initial residual = 0.0196289, Final residual = 3.18689e-07, No Iterations 5
diagonal:  Solving for rho, Initial residual = 0, Final residual = 0, No Iterations 0
time step continuity errors : sum local = 1.00795e-08, global = -3.09739e-10, cumulative = 5.89913e-07
GAMGPCG:  Solving for p_rgh, Initial residual = 0.00334248, Final residual = 4.08715e-07, No Iterations 4
diagonal:  Solving for rho, Initial residual = 0, Final residual = 0, No Iterations 0
time step continuity errors : sum local = 1.24085e-08, global = 2.15525e-09, cumulative = 5.92069e-07
DILUPBiCGStab:  Solving for omega, Initial residual = 6.70966e-05, Final residual = 1.20926e-09, No Iterations 2
DILUPBiCGStab:  Solving for k, Initial residual = 0.00265027, Final residual = 1.80291e-09, No Iterations 3

ExecutionTime = 289.11 s  ClockTime = 289 s

    Overall     = 0.00128946, 0.01
Time = 2494

diagonal:  Solving for rho, Initial residual = 0, Final residual = 0, No Iterations 0

Execution time for mesh.update() = 0 s

DILUPBiCGStab:  Solving for Ux, Initial residual = 0.00442878, Final residual = 6.57674e-09, No Iterations 3
DILUPBiCGStab:  Solving for Uy, Initial residual = 0.00368916, Final residual = 5.33187e-09, No Iterations 3
DILUPBiCGStab:  Solving for O2, Initial residual = 0.00160722, Final residual = 2.25154e-09, No Iterations 3
DILUPBiCGStab:  Solving for H2O, Initial residual = 0.0016072, Final residual = 2.25151e-09, No Iterations 3
DILUPBiCGStab:  Solving for CH4, Initial residual = 0, Final residual = 0, No Iterations 0
DILUPBiCGStab:  Solving for CO2, Initial residual = 0.0016072, Final residual = 2.25151e-09, No Iterations 3
DILUPBiCGStab:  Solving for h, Initial residual = 0.00189777, Final residual = 2.34989e-09, No Iterations 3
min/max(T) = 300, 1044.97
GAMGPCG:  Solving for p_rgh, Initial residual = 0.0200698, Final residual = 3.12377e-07, No Iterations 5
diagonal:  Solving for rho, Initial residual = 0, Final residual = 0, No Iterations 0
time step continuity errors : sum local = 9.82689e-09, global = 6.79298e-11, cumulative = 5.92137e-07
GAMGPCG:  Solving for p_rgh, Initial residual = 0.00332596, Final residual = 3.9854e-07, No Iterations 4
diagonal:  Solving for rho, Initial residual = 0, Final residual = 0, No Iterations 0
time step continuity errors : sum local = 1.20913e-08, global = 2.1618e-09, cumulative = 5.94298e-07
DILUPBiCGStab:  Solving for omega, Initial residual = 6.71345e-05, Final residual = 1.23111e-09, No Iterations 2
DILUPBiCGStab:  Solving for k, Initial residual = 0.00268856, Final residual = 1.92379e-09, No Iterations 3

ExecutionTime = 289.23 s  ClockTime = 290 s

    Overall     = 0.00129194, 0.01
Time = 2495

diagonal:  Solving for rho, Initial residual = 0, Final residual = 0, No Iterations 0

Execution time for mesh.update() = 0 s

DILUPBiCGStab:  Solving for Ux, Initial residual = 0.00444669, Final residual = 6.05938e-09, No Iterations 3
DILUPBiCGStab:  Solving for Uy, Initial residual = 0.00371519, Final residual = 5.30455e-09, No Iterations 3
DILUPBiCGStab:  Solving for O2, Initial residual = 0.00160183, Final residual = 2.36509e-09, No Iterations 3
DILUPBiCGStab:  Solving for H2O, Initial residual = 0.00160182, Final residual = 2.36507e-09, No Iterations 3
DILUPBiCGStab:  Solving for CH4, Initial residual = 0, Final residual = 0, No Iterations 0
DILUPBiCGStab:  Solving for CO2, Initial residual = 0.00160182, Final residual = 2.36507e-09, No Iterations 3
DILUPBiCGStab:  Solving for h, Initial residual = 0.00188467, Final residual = 2.43785e-09, No Iterations 3
min/max(T) = 300, 1044.97
GAMGPCG:  Solving for p_rgh, Initial residual = 0.0209117, Final residual = 3.9539e-07, No Iterations 5
diagonal:  Solving for rho, Initial residual = 0, Final residual = 0, No Iterations 0
time step continuity errors : sum local = 1.24671e-08, global = 4.22194e-10, cumulative = 5.94721e-07
GAMGPCG:  Solving for p_rgh, Initial residual = 0.00335227, Final residual = 3.73484e-07, No Iterations 4
diagonal:  Solving for rho, Initial residual = 0, Final residual = 0, No Iterations 0
time step continuity errors : sum local = 1.12503e-08, global = 2.23376e-09, cumulative = 5.96954e-07
DILUPBiCGStab:  Solving for omega, Initial residual = 6.69654e-05, Final residual = 1.16878e-09, No Iterations 2
DILUPBiCGStab:  Solving for k, Initial residual = 0.00268929, Final residual = 1.98308e-09, No Iterations 3

ExecutionTime = 289.34 s  ClockTime = 290 s

    Overall     = 0.00128901, 0.01
Time = 2496

diagonal:  Solving for rho, Initial residual = 0, Final residual = 0, No Iterations 0

Execution time for mesh.update() = 0 s

DILUPBiCGStab:  Solving for Ux, Initial residual = 0.00446011, Final residual = 6.22357e-09, No Iterations 3
DILUPBiCGStab:  Solving for Uy, Initial residual = 0.00374265, Final residual = 5.51617e-09, No Iterations 3
DILUPBiCGStab:  Solving for O2, Initial residual = 0.00159626, Final residual = 2.39455e-09, No Iterations 3
DILUPBiCGStab:  Solving for H2O, Initial residual = 0.00159625, Final residual = 2.39453e-09, No Iterations 3
DILUPBiCGStab:  Solving for CH4, Initial residual = 0, Final residual = 0, No Iterations 0
DILUPBiCGStab:  Solving for CO2, Initial residual = 0.00159625, Final residual = 2.39453e-09, No Iterations 3
DILUPBiCGStab:  Solving for h, Initial residual = 0.00187683, Final residual = 2.43023e-09, No Iterations 3
min/max(T) = 300, 1044.97
GAMGPCG:  Solving for p_rgh, Initial residual = 0.0205049, Final residual = 3.67744e-07, No Iterations 5
diagonal:  Solving for rho, Initial residual = 0, Final residual = 0, No Iterations 0
time step continuity errors : sum local = 1.16563e-08, global = 1.20089e-09, cumulative = 5.98155e-07
GAMGPCG:  Solving for p_rgh, Initial residual = 0.00339908, Final residual = 3.54808e-07, No Iterations 4
diagonal:  Solving for rho, Initial residual = 0, Final residual = 0, No Iterations 0
time step continuity errors : sum local = 1.09178e-08, global = 2.12526e-09, cumulative = 6.0028e-07
DILUPBiCGStab:  Solving for omega, Initial residual = 6.68717e-05, Final residual = 1.15766e-09, No Iterations 2
DILUPBiCGStab:  Solving for k, Initial residual = 0.00270134, Final residual = 1.94647e-09, No Iterations 3

ExecutionTime = 289.46 s  ClockTime = 290 s

    Overall     = 0.00129201, 0.01
Time = 2497

diagonal:  Solving for rho, Initial residual = 0, Final residual = 0, No Iterations 0

Execution time for mesh.update() = 0 s

DILUPBiCGStab:  Solving for Ux, Initial residual = 0.00448899, Final residual = 6.15939e-09, No Iterations 3
DILUPBiCGStab:  Solving for Uy, Initial residual = 0.00379384, Final residual = 5.51615e-09, No Iterations 3
DILUPBiCGStab:  Solving for O2, Initial residual = 0.00158881, Final residual = 2.49312e-09, No Iterations 3
DILUPBiCGStab:  Solving for H2O, Initial residual = 0.0015888, Final residual = 2.4931e-09, No Iterations 3
DILUPBiCGStab:  Solving for CH4, Initial residual = 0, Final residual = 0, No Iterations 0
DILUPBiCGStab:  Solving for CO2, Initial residual = 0.0015888, Final residual = 2.4931e-09, No Iterations 3
DILUPBiCGStab:  Solving for h, Initial residual = 0.00186569, Final residual = 2.53803e-09, No Iterations 3
min/max(T) = 300, 1044.97
GAMGPCG:  Solving for p_rgh, Initial residual = 0.0208804, Final residual = 3.10365e-07, No Iterations 5
diagonal:  Solving for rho, Initial residual = 0, Final residual = 0, No Iterations 0
time step continuity errors : sum local = 9.88615e-09, global = 8.93703e-10, cumulative = 6.01174e-07
GAMGPCG:  Solving for p_rgh, Initial residual = 0.00346174, Final residual = 3.59354e-07, No Iterations 4
diagonal:  Solving for rho, Initial residual = 0, Final residual = 0, No Iterations 0
time step continuity errors : sum local = 1.09279e-08, global = 1.06638e-09, cumulative = 6.02241e-07
DILUPBiCGStab:  Solving for omega, Initial residual = 6.65826e-05, Final residual = 1.11011e-09, No Iterations 2
DILUPBiCGStab:  Solving for k, Initial residual = 0.00270114, Final residual = 1.87288e-09, No Iterations 3

ExecutionTime = 289.58 s  ClockTime = 290 s

    Overall     = 0.00128896, 0.01
Time = 2498

diagonal:  Solving for rho, Initial residual = 0, Final residual = 0, No Iterations 0

Execution time for mesh.update() = 0 s

DILUPBiCGStab:  Solving for Ux, Initial residual = 0.00451909, Final residual = 6.11702e-09, No Iterations 3
DILUPBiCGStab:  Solving for Uy, Initial residual = 0.00381826, Final residual = 5.63774e-09, No Iterations 3
DILUPBiCGStab:  Solving for O2, Initial residual = 0.00158886, Final residual = 2.52325e-09, No Iterations 3
DILUPBiCGStab:  Solving for H2O, Initial residual = 0.00158884, Final residual = 2.52323e-09, No Iterations 3
DILUPBiCGStab:  Solving for CH4, Initial residual = 0, Final residual = 0, No Iterations 0
DILUPBiCGStab:  Solving for CO2, Initial residual = 0.00158884, Final residual = 2.52323e-09, No Iterations 3
DILUPBiCGStab:  Solving for h, Initial residual = 0.00186324, Final residual = 2.55965e-09, No Iterations 3
min/max(T) = 300, 1044.97
GAMGPCG:  Solving for p_rgh, Initial residual = 0.0216747, Final residual = 2.808e-07, No Iterations 5
diagonal:  Solving for rho, Initial residual = 0, Final residual = 0, No Iterations 0
time step continuity errors : sum local = 8.81217e-09, global = -4.63429e-10, cumulative = 6.01777e-07
GAMGPCG:  Solving for p_rgh, Initial residual = 0.00355918, Final residual = 3.51557e-07, No Iterations 4
diagonal:  Solving for rho, Initial residual = 0, Final residual = 0, No Iterations 0
time step continuity errors : sum local = 1.07991e-08, global = 1.09864e-09, cumulative = 6.02876e-07
DILUPBiCGStab:  Solving for omega, Initial residual = 6.75251e-05, Final residual = 1.10353e-09, No Iterations 2
DILUPBiCGStab:  Solving for k, Initial residual = 0.00270214, Final residual = 1.64997e-09, No Iterations 3

ExecutionTime = 289.7 s  ClockTime = 290 s

    Overall     = 0.00129246, 0.01
Time = 2499

diagonal:  Solving for rho, Initial residual = 0, Final residual = 0, No Iterations 0

Execution time for mesh.update() = 0 s

DILUPBiCGStab:  Solving for Ux, Initial residual = 0.00450503, Final residual = 5.97113e-09, No Iterations 3
DILUPBiCGStab:  Solving for Uy, Initial residual = 0.00383326, Final residual = 5.64981e-09, No Iterations 3
DILUPBiCGStab:  Solving for O2, Initial residual = 0.00158435, Final residual = 2.53865e-09, No Iterations 3
DILUPBiCGStab:  Solving for H2O, Initial residual = 0.00158433, Final residual = 2.53863e-09, No Iterations 3
DILUPBiCGStab:  Solving for CH4, Initial residual = 0, Final residual = 0, No Iterations 0
DILUPBiCGStab:  Solving for CO2, Initial residual = 0.00158433, Final residual = 2.53863e-09, No Iterations 3
DILUPBiCGStab:  Solving for h, Initial residual = 0.00185886, Final residual = 2.53156e-09, No Iterations 3
min/max(T) = 300, 1044.97
GAMGPCG:  Solving for p_rgh, Initial residual = 0.0208806, Final residual = 2.64157e-07, No Iterations 5
diagonal:  Solving for rho, Initial residual = 0, Final residual = 0, No Iterations 0
time step continuity errors : sum local = 8.33101e-09, global = -8.46609e-11, cumulative = 6.02791e-07
GAMGPCG:  Solving for p_rgh, Initial residual = 0.0035582, Final residual = 3.3342e-07, No Iterations 4
diagonal:  Solving for rho, Initial residual = 0, Final residual = 0, No Iterations 0
time step continuity errors : sum local = 1.02813e-08, global = 1.68833e-09, cumulative = 6.04479e-07
DILUPBiCGStab:  Solving for omega, Initial residual = 6.73193e-05, Final residual = 1.08971e-09, No Iterations 2
DILUPBiCGStab:  Solving for k, Initial residual = 0.00270131, Final residual = 1.57594e-09, No Iterations 3

ExecutionTime = 289.81 s  ClockTime = 290 s

    Overall     = 0.00128932, 0.01
Time = 2500

diagonal:  Solving for rho, Initial residual = 0, Final residual = 0, No Iterations 0

Execution time for mesh.update() = 0 s

DILUPBiCGStab:  Solving for Ux, Initial residual = 0.00451036, Final residual = 6.09006e-09, No Iterations 3
DILUPBiCGStab:  Solving for Uy, Initial residual = 0.00379906, Final residual = 5.52111e-09, No Iterations 3
GAMGPCG:  Solving for G, Initial residual = 0.216328, Final residual = 3.28626e-05, No Iterations 6
DILUPBiCGStab:  Solving for O2, Initial residual = 0.00158119, Final residual = 2.48083e-09, No Iterations 3
DILUPBiCGStab:  Solving for H2O, Initial residual = 0.00158117, Final residual = 2.48082e-09, No Iterations 3
DILUPBiCGStab:  Solving for CH4, Initial residual = 0, Final residual = 0, No Iterations 0
DILUPBiCGStab:  Solving for CO2, Initial residual = 0.00158117, Final residual = 2.48082e-09, No Iterations 3
DILUPBiCGStab:  Solving for h, Initial residual = 0.0018557, Final residual = 2.5094e-09, No Iterations 3
min/max(T) = 300, 1044.97
GAMGPCG:  Solving for p_rgh, Initial residual = 0.0214321, Final residual = 3.44453e-07, No Iterations 5
diagonal:  Solving for rho, Initial residual = 0, Final residual = 0, No Iterations 0
time step continuity errors : sum local = 1.07059e-08, global = 6.7059e-10, cumulative = 6.0515e-07
GAMGPCG:  Solving for p_rgh, Initial residual = 0.00356457, Final residual = 3.39766e-07, No Iterations 4
diagonal:  Solving for rho, Initial residual = 0, Final residual = 0, No Iterations 0
time step continuity errors : sum local = 1.04769e-08, global = 1.71843e-09, cumulative = 6.06868e-07
DILUPBiCGStab:  Solving for omega, Initial residual = 6.7408e-05, Final residual = 1.09371e-09, No Iterations 2
DILUPBiCGStab:  Solving for k, Initial residual = 0.00269737, Final residual = 1.67003e-09, No Iterations 3

ExecutionTime = 290.06 s  ClockTime = 290 s


Patch Mean : 302.33
Patch Variance : 0.00913025
Patch Gradient : 0.163128
End
