/*---------------------------------------------------------------------------*\
  =========                 |
  \\      /  F ield         | OpenFOAM: The Open Source CFD Toolbox
   \\    /   O peration     | Website:  https://openfoam.org
    \\  /    A nd           | Version:  dev
     \\/     M anipulation  |
\*---------------------------------------------------------------------------*/
Build  : dev-cabe48fb62c1
Exec   : fireDyMFoam
Date   : Apr 15 2019
Time   : 13:40:04
Host   : "Host"
PID    : 5720
I/O    : uncollated
Case   : /home/tesla/OpenFOAM/tesla-dev/run/rollerOpt_COBYLA_NEW
nProcs : 1
sigFpe : Enabling floating point exception trapping (FOAM_SIGFPE).
fileModificationChecking : Monitoring run-time modified files using timeStampMaster (fileModificationSkew 10)
allowSystemOperations : Allowing user-supplied system call operations

// * * * * * * * * * * * * * * * * * * * * * * * * * * * * * * * * * * * * * //
Create time

--> FOAM Warning : 
    From function void* Foam::dlOpen(const Foam::fileName&, bool)
    in file POSIX.C at line 1268
    dlopen error : libgroovyBC.so: cannot open shared object file: No such file or directory
--> FOAM Warning : 
    From function bool Foam::dlLibraryTable::open(const Foam::fileName&, bool)
    in file db/dynamicLibrary/dlLibraryTable/dlLibraryTable.C at line 105
    could not load "libgroovyBC.so"
Create mesh for time = 250

Selecting dynamicFvMesh dynamicRefineFvMesh
Detected 538 cells that are protected from refinement. Writing these to cellSet protectedCells.

PIMPLE: No convergence criteria found


PIMPLE: Operating solver in PISO mode


Initializing Solver

Selecting thermodynamics package 
{
    type            hePsiThermo;
    mixture         reactingMixture;
    transport       sutherland;
    thermo          janaf;
    energy          sensibleEnthalpy;
    equationOfState perfectGas;
    specie          specie;
}

Selecting chemistryReader foamChemistryReader
    elements not defined in "/home/tesla/OpenFOAM/tesla-dev/run/rollerOpt_COBYLA_NEW/constant/reactions"
Reading/calculating face flux field phi

No MRF models present

Selecting turbulence model type RAS
Selecting RAS turbulence model kOmegaSST
Selecting patchDistMethod meshWave
kOmegaSSTCoeffs
{
    delta           cubeRootVol;
    cubeRootVolCoeffs
    {
        deltaCoeff      1;
    }
    alphaK1         0.85;
    alphaK2         1;
    alphaOmega1     0.5;
    alphaOmega2     0.856;
    gamma1          0.555556;
    gamma2          0.44;
    beta1           0.075;
    beta2           0.0828;
    betaStar        0.09;
    a1              0.31;
    b1              1;
    c1              10;
    F3              false;
}

Selecting combustion model none<psiThermoCombustion>
--> FOAM Warning : 
    From function static Foam::autoPtr<T> Foam::combustionModel::New(typename CombustionModel::reactionThermo&, const Foam::compressibleTurbulenceModel&, const Foam::word&) [with CombustionModel = Foam::CombustionModel<Foam::psiReactionThermo>; typename CombustionModel::reactionThermo = Foam::psiReactionThermo]
    in file /home/tesla/OpenFOAM/OpenFOAM-dev/src/combustionModels/lnInclude/combustionModelTemplates.C at line 69
    Template parameters are no longer required when selecting a combustionModel. This information is now obtained directly from the thermodynamics. Actually selecting combustion model none.

Reading g

Reading hRef
Calculating field g.h


Reading pRef
Selecting radiationModel P1
Selecting absorptionEmissionModel greyMeanAbsorptionEmission
Selecting scatterModel none
Selecting sootModel none
Creating finite volume options from "system/fvOptions"

No finite volume options present
Using LTS

Starting time loop

Using dynamicCode for functionObject patchCalcs at line 64 in "/home/tesla/OpenFOAM/tesla-dev/run/rollerOpt_COBYLA_NEW/system/controlDict.functions.patchCalcs"
    Overall     = 0.0013594, 0.01
Time = 251

diagonal:  Solving for rho, Initial residual = 0, Final residual = 0, No Iterations 0

Execution time for mesh.update() = 0 s

DILUPBiCGStab:  Solving for Ux, Initial residual = 0.00548222, Final residual = 7.21267e-09, No Iterations 3
DILUPBiCGStab:  Solving for Uy, Initial residual = 0.00871623, Final residual = 1.16619e-09, No Iterations 3
GAMGPCG:  Solving for G, Initial residual = 0.0314496, Final residual = 7.03771e-05, No Iterations 4
DILUPBiCGStab:  Solving for O2, Initial residual = 0.00371818, Final residual = 4.51005e-09, No Iterations 3
DILUPBiCGStab:  Solving for H2O, Initial residual = 0.0037189, Final residual = 4.50979e-09, No Iterations 3
DILUPBiCGStab:  Solving for CH4, Initial residual = 0, Final residual = 0, No Iterations 0
DILUPBiCGStab:  Solving for CO2, Initial residual = 0.0037189, Final residual = 4.50969e-09, No Iterations 3
DILUPBiCGStab:  Solving for h, Initial residual = 0.00411143, Final residual = 4.43318e-09, No Iterations 3
min/max(T) = 299.302, 1044.98
GAMGPCG:  Solving for p_rgh, Initial residual = 0.0253363, Final residual = 1.3721e-07, No Iterations 5
diagonal:  Solving for rho, Initial residual = 0, Final residual = 0, No Iterations 0
time step continuity errors : sum local = 2.46433e-06, global = -1.20334e-07, cumulative = -1.20334e-07
GAMGPCG:  Solving for p_rgh, Initial residual = 0.00371282, Final residual = 2.98935e-07, No Iterations 4
diagonal:  Solving for rho, Initial residual = 0, Final residual = 0, No Iterations 0
time step continuity errors : sum local = 2.46404e-06, global = -1.17948e-07, cumulative = -2.38282e-07
DILUPBiCGStab:  Solving for omega, Initial residual = 0.000129343, Final residual = 2.44769e-09, No Iterations 2
DILUPBiCGStab:  Solving for k, Initial residual = 0.00546863, Final residual = 3.02931e-09, No Iterations 3

ExecutionTime = 0.37 s  ClockTime = 1 s

    Overall     = 0.00135979, 0.01
Time = 252

diagonal:  Solving for rho, Initial residual = 0, Final residual = 0, No Iterations 0

Execution time for mesh.update() = 0.01 s

DILUPBiCGStab:  Solving for Ux, Initial residual = 0.0054853, Final residual = 7.89354e-09, No Iterations 3
DILUPBiCGStab:  Solving for Uy, Initial residual = 0.00872882, Final residual = 1.1785e-09, No Iterations 3
DILUPBiCGStab:  Solving for O2, Initial residual = 0.00370691, Final residual = 3.75654e-09, No Iterations 3
DILUPBiCGStab:  Solving for H2O, Initial residual = 0.00370723, Final residual = 3.75673e-09, No Iterations 3
DILUPBiCGStab:  Solving for CH4, Initial residual = 0, Final residual = 0, No Iterations 0
DILUPBiCGStab:  Solving for CO2, Initial residual = 0.00370722, Final residual = 3.75671e-09, No Iterations 3
DILUPBiCGStab:  Solving for h, Initial residual = 0.00409424, Final residual = 3.4502e-09, No Iterations 3
min/max(T) = 299.321, 1044.98
GAMGPCG:  Solving for p_rgh, Initial residual = 0.0250223, Final residual = 8.6802e-08, No Iterations 5
diagonal:  Solving for rho, Initial residual = 0, Final residual = 0, No Iterations 0
time step continuity errors : sum local = 4.22353e-09, global = -4.46892e-10, cumulative = -2.38729e-07
GAMGPCG:  Solving for p_rgh, Initial residual = 0.00359889, Final residual = 3.31948e-07, No Iterations 4
diagonal:  Solving for rho, Initial residual = 0, Final residual = 0, No Iterations 0
time step continuity errors : sum local = 1.47694e-08, global = 2.40155e-09, cumulative = -2.36328e-07
DILUPBiCGStab:  Solving for omega, Initial residual = 0.000129398, Final residual = 2.41107e-09, No Iterations 2
DILUPBiCGStab:  Solving for k, Initial residual = 0.00544918, Final residual = 2.91094e-09, No Iterations 3

ExecutionTime = 0.49 s  ClockTime = 1 s

    Overall     = 0.00135125, 0.01
Time = 253

diagonal:  Solving for rho, Initial residual = 0, Final residual = 0, No Iterations 0

Execution time for mesh.update() = 0 s

DILUPBiCGStab:  Solving for Ux, Initial residual = 0.00548455, Final residual = 1.08295e-09, No Iterations 3
DILUPBiCGStab:  Solving for Uy, Initial residual = 0.00869481, Final residual = 1.39747e-09, No Iterations 3
DILUPBiCGStab:  Solving for O2, Initial residual = 0.00369461, Final residual = 3.58236e-09, No Iterations 3
DILUPBiCGStab:  Solving for H2O, Initial residual = 0.00369537, Final residual = 3.58246e-09, No Iterations 3
DILUPBiCGStab:  Solving for CH4, Initial residual = 0, Final residual = 0, No Iterations 0
DILUPBiCGStab:  Solving for CO2, Initial residual = 0.00369537, Final residual = 3.58245e-09, No Iterations 3
DILUPBiCGStab:  Solving for h, Initial residual = 0.00407959, Final residual = 3.31336e-09, No Iterations 3
min/max(T) = 299.307, 1044.98
GAMGPCG:  Solving for p_rgh, Initial residual = 0.0246784, Final residual = 1.14321e-07, No Iterations 5
diagonal:  Solving for rho, Initial residual = 0, Final residual = 0, No Iterations 0
time step continuity errors : sum local = 5.6083e-09, global = -1.707e-10, cumulative = -2.36498e-07
GAMGPCG:  Solving for p_rgh, Initial residual = 0.00363558, Final residual = 3.13573e-07, No Iterations 4
diagonal:  Solving for rho, Initial residual = 0, Final residual = 0, No Iterations 0
time step continuity errors : sum local = 1.40851e-08, global = 2.3693e-09, cumulative = -2.34129e-07
DILUPBiCGStab:  Solving for omega, Initial residual = 0.000129354, Final residual = 2.50409e-09, No Iterations 2
DILUPBiCGStab:  Solving for k, Initial residual = 0.0054293, Final residual = 2.85379e-09, No Iterations 3

ExecutionTime = 0.61 s  ClockTime = 1 s

    Overall     = 0.00135132, 0.01
Time = 254

diagonal:  Solving for rho, Initial residual = 0, Final residual = 0, No Iterations 0

Execution time for mesh.update() = 0 s

DILUPBiCGStab:  Solving for Ux, Initial residual = 0.00548536, Final residual = 9.27672e-09, No Iterations 3
DILUPBiCGStab:  Solving for Uy, Initial residual = 0.00866828, Final residual = 1.43058e-09, No Iterations 3
DILUPBiCGStab:  Solving for O2, Initial residual = 0.00368299, Final residual = 3.33714e-09, No Iterations 3
DILUPBiCGStab:  Solving for H2O, Initial residual = 0.00368353, Final residual = 3.33729e-09, No Iterations 3
DILUPBiCGStab:  Solving for CH4, Initial residual = 0, Final residual = 0, No Iterations 0
DILUPBiCGStab:  Solving for CO2, Initial residual = 0.00368353, Final residual = 3.33728e-09, No Iterations 3
DILUPBiCGStab:  Solving for h, Initial residual = 0.00407065, Final residual = 2.99264e-09, No Iterations 3
min/max(T) = 299.324, 1044.98
GAMGPCG:  Solving for p_rgh, Initial residual = 0.0245748, Final residual = 9.66569e-08, No Iterations 5
diagonal:  Solving for rho, Initial residual = 0, Final residual = 0, No Iterations 0
time step continuity errors : sum local = 4.7367e-09, global = -1.00095e-11, cumulative = -2.34139e-07
GAMGPCG:  Solving for p_rgh, Initial residual = 0.00354895, Final residual = 3.25056e-07, No Iterations 4
diagonal:  Solving for rho, Initial residual = 0, Final residual = 0, No Iterations 0
time step continuity errors : sum local = 1.44838e-08, global = 2.59621e-09, cumulative = -2.31543e-07
DILUPBiCGStab:  Solving for omega, Initial residual = 0.000129748, Final residual = 2.41135e-09, No Iterations 2
DILUPBiCGStab:  Solving for k, Initial residual = 0.00539562, Final residual = 2.56097e-09, No Iterations 3

ExecutionTime = 0.73 s  ClockTime = 1 s

    Overall     = 0.00134238, 0.01
Time = 255

diagonal:  Solving for rho, Initial residual = 0, Final residual = 0, No Iterations 0

Execution time for mesh.update() = 0 s

DILUPBiCGStab:  Solving for Ux, Initial residual = 0.00549108, Final residual = 9.65764e-10, No Iterations 3
DILUPBiCGStab:  Solving for Uy, Initial residual = 0.00865911, Final residual = 1.52954e-09, No Iterations 3
DILUPBiCGStab:  Solving for O2, Initial residual = 0.00367891, Final residual = 3.26627e-09, No Iterations 3
DILUPBiCGStab:  Solving for H2O, Initial residual = 0.00367969, Final residual = 3.26623e-09, No Iterations 3
DILUPBiCGStab:  Solving for CH4, Initial residual = 0, Final residual = 0, No Iterations 0
DILUPBiCGStab:  Solving for CO2, Initial residual = 0.00367969, Final residual = 3.26622e-09, No Iterations 3
DILUPBiCGStab:  Solving for h, Initial residual = 0.00406338, Final residual = 2.92468e-09, No Iterations 3
min/max(T) = 299.312, 1044.98
GAMGPCG:  Solving for p_rgh, Initial residual = 0.0241422, Final residual = 1.44709e-07, No Iterations 5
diagonal:  Solving for rho, Initial residual = 0, Final residual = 0, No Iterations 0
time step continuity errors : sum local = 6.99133e-09, global = -3.1339e-10, cumulative = -2.31856e-07
GAMGPCG:  Solving for p_rgh, Initial residual = 0.00354967, Final residual = 3.0371e-07, No Iterations 4
diagonal:  Solving for rho, Initial residual = 0, Final residual = 0, No Iterations 0
time step continuity errors : sum local = 1.36612e-08, global = 2.39077e-09, cumulative = -2.29465e-07
DILUPBiCGStab:  Solving for omega, Initial residual = 0.000129704, Final residual = 2.73648e-09, No Iterations 2
DILUPBiCGStab:  Solving for k, Initial residual = 0.00537586, Final residual = 2.50377e-09, No Iterations 3

ExecutionTime = 0.84 s  ClockTime = 1 s

    Overall     = 0.00134355, 0.01
Time = 256

diagonal:  Solving for rho, Initial residual = 0, Final residual = 0, No Iterations 0

Execution time for mesh.update() = 0 s

DILUPBiCGStab:  Solving for Ux, Initial residual = 0.00547227, Final residual = 8.33299e-10, No Iterations 3
DILUPBiCGStab:  Solving for Uy, Initial residual = 0.00863109, Final residual = 3.61052e-09, No Iterations 3
DILUPBiCGStab:  Solving for O2, Initial residual = 0.00367005, Final residual = 3.09509e-09, No Iterations 3
DILUPBiCGStab:  Solving for H2O, Initial residual = 0.00367038, Final residual = 3.09522e-09, No Iterations 3
DILUPBiCGStab:  Solving for CH4, Initial residual = 0, Final residual = 0, No Iterations 0
DILUPBiCGStab:  Solving for CO2, Initial residual = 0.00367038, Final residual = 3.09521e-09, No Iterations 3
DILUPBiCGStab:  Solving for h, Initial residual = 0.00405138, Final residual = 2.65641e-09, No Iterations 3
min/max(T) = 299.333, 1044.98
GAMGPCG:  Solving for p_rgh, Initial residual = 0.0244902, Final residual = 1.35936e-07, No Iterations 5
diagonal:  Solving for rho, Initial residual = 0, Final residual = 0, No Iterations 0
time step continuity errors : sum local = 6.56015e-09, global = -1.95601e-10, cumulative = -2.29661e-07
GAMGPCG:  Solving for p_rgh, Initial residual = 0.00353756, Final residual = 2.92111e-07, No Iterations 4
diagonal:  Solving for rho, Initial residual = 0, Final residual = 0, No Iterations 0
time step continuity errors : sum local = 1.31143e-08, global = 2.25121e-09, cumulative = -2.2741e-07
DILUPBiCGStab:  Solving for omega, Initial residual = 0.000129563, Final residual = 2.58265e-09, No Iterations 2
DILUPBiCGStab:  Solving for k, Initial residual = 0.005344, Final residual = 2.28948e-09, No Iterations 3

ExecutionTime = 0.96 s  ClockTime = 1 s

    Overall     = 0.00133508, 0.01
Time = 257

diagonal:  Solving for rho, Initial residual = 0, Final residual = 0, No Iterations 0

Execution time for mesh.update() = 0 s

DILUPBiCGStab:  Solving for Ux, Initial residual = 0.00549638, Final residual = 9.59251e-10, No Iterations 3
DILUPBiCGStab:  Solving for Uy, Initial residual = 0.00866378, Final residual = 2.40811e-09, No Iterations 3
DILUPBiCGStab:  Solving for O2, Initial residual = 0.00365997, Final residual = 2.91594e-09, No Iterations 3
DILUPBiCGStab:  Solving for H2O, Initial residual = 0.00366073, Final residual = 2.91575e-09, No Iterations 3
DILUPBiCGStab:  Solving for CH4, Initial residual = 0, Final residual = 0, No Iterations 0
DILUPBiCGStab:  Solving for CO2, Initial residual = 0.00366073, Final residual = 2.91574e-09, No Iterations 3
DILUPBiCGStab:  Solving for h, Initial residual = 0.0040413, Final residual = 2.40694e-09, No Iterations 3
min/max(T) = 299.323, 1044.98
GAMGPCG:  Solving for p_rgh, Initial residual = 0.0239842, Final residual = 1.06012e-07, No Iterations 5
diagonal:  Solving for rho, Initial residual = 0, Final residual = 0, No Iterations 0
time step continuity errors : sum local = 5.14685e-09, global = -1.30497e-10, cumulative = -2.2754e-07
GAMGPCG:  Solving for p_rgh, Initial residual = 0.00357912, Final residual = 3.04484e-07, No Iterations 4
diagonal:  Solving for rho, Initial residual = 0, Final residual = 0, No Iterations 0
time step continuity errors : sum local = 1.36902e-08, global = 2.4706e-09, cumulative = -2.2507e-07
DILUPBiCGStab:  Solving for omega, Initial residual = 0.000129838, Final residual = 2.54401e-09, No Iterations 2
DILUPBiCGStab:  Solving for k, Initial residual = 0.00533507, Final residual = 2.31122e-09, No Iterations 3

ExecutionTime = 1.08 s  ClockTime = 1 s

    Overall     = 0.00133629, 0.01
Time = 258

diagonal:  Solving for rho, Initial residual = 0, Final residual = 0, No Iterations 0

Execution time for mesh.update() = 0 s

DILUPBiCGStab:  Solving for Ux, Initial residual = 0.00549611, Final residual = 1.02873e-09, No Iterations 3
DILUPBiCGStab:  Solving for Uy, Initial residual = 0.00862784, Final residual = 1.73436e-09, No Iterations 3
DILUPBiCGStab:  Solving for O2, Initial residual = 0.00365419, Final residual = 2.98253e-09, No Iterations 3
DILUPBiCGStab:  Solving for H2O, Initial residual = 0.00365452, Final residual = 2.98263e-09, No Iterations 3
DILUPBiCGStab:  Solving for CH4, Initial residual = 0, Final residual = 0, No Iterations 0
DILUPBiCGStab:  Solving for CO2, Initial residual = 0.00365452, Final residual = 2.98263e-09, No Iterations 3
DILUPBiCGStab:  Solving for h, Initial residual = 0.00403479, Final residual = 2.41433e-09, No Iterations 3
min/max(T) = 299.342, 1044.98
GAMGPCG:  Solving for p_rgh, Initial residual = 0.0243255, Final residual = 1.43758e-07, No Iterations 5
diagonal:  Solving for rho, Initial residual = 0, Final residual = 0, No Iterations 0
time step continuity errors : sum local = 6.94326e-09, global = -6.62061e-11, cumulative = -2.25136e-07
GAMGPCG:  Solving for p_rgh, Initial residual = 0.00356705, Final residual = 2.7441e-07, No Iterations 4
diagonal:  Solving for rho, Initial residual = 0, Final residual = 0, No Iterations 0
time step continuity errors : sum local = 1.23604e-08, global = 1.905e-09, cumulative = -2.23231e-07
DILUPBiCGStab:  Solving for omega, Initial residual = 0.000130179, Final residual = 2.24321e-09, No Iterations 2
DILUPBiCGStab:  Solving for k, Initial residual = 0.0053103, Final residual = 2.84497e-09, No Iterations 3

ExecutionTime = 1.2 s  ClockTime = 2 s

    Overall     = 0.0013279, 0.01
Time = 259

diagonal:  Solving for rho, Initial residual = 0, Final residual = 0, No Iterations 0

Execution time for mesh.update() = 0 s

DILUPBiCGStab:  Solving for Ux, Initial residual = 0.00550382, Final residual = 9.65958e-10, No Iterations 3
DILUPBiCGStab:  Solving for Uy, Initial residual = 0.00865556, Final residual = 1.34667e-09, No Iterations 3
DILUPBiCGStab:  Solving for O2, Initial residual = 0.00364742, Final residual = 5.13261e-09, No Iterations 3
DILUPBiCGStab:  Solving for H2O, Initial residual = 0.00364818, Final residual = 5.13103e-09, No Iterations 3
DILUPBiCGStab:  Solving for CH4, Initial residual = 0, Final residual = 0, No Iterations 0
DILUPBiCGStab:  Solving for CO2, Initial residual = 0.00364818, Final residual = 5.13102e-09, No Iterations 3
DILUPBiCGStab:  Solving for h, Initial residual = 0.00402731, Final residual = 3.76129e-09, No Iterations 3
min/max(T) = 299.337, 1044.98
GAMGPCG:  Solving for p_rgh, Initial residual = 0.0241803, Final residual = 1.37991e-07, No Iterations 5
diagonal:  Solving for rho, Initial residual = 0, Final residual = 0, No Iterations 0
time step continuity errors : sum local = 6.70883e-09, global = -1.02747e-10, cumulative = -2.23334e-07
GAMGPCG:  Solving for p_rgh, Initial residual = 0.0036437, Final residual = 3.14545e-07, No Iterations 4
diagonal:  Solving for rho, Initial residual = 0, Final residual = 0, No Iterations 0
time step continuity errors : sum local = 1.41674e-08, global = 2.22075e-09, cumulative = -2.21113e-07
DILUPBiCGStab:  Solving for omega, Initial residual = 0.000130392, Final residual = 2.36677e-09, No Iterations 2
DILUPBiCGStab:  Solving for k, Initial residual = 0.00528364, Final residual = 2.79043e-09, No Iterations 3

ExecutionTime = 1.32 s  ClockTime = 2 s

    Overall     = 0.00132977, 0.01
Time = 260

diagonal:  Solving for rho, Initial residual = 0, Final residual = 0, No Iterations 0

Execution time for mesh.update() = 0 s

DILUPBiCGStab:  Solving for Ux, Initial residual = 0.00549264, Final residual = 9.08944e-09, No Iterations 3
DILUPBiCGStab:  Solving for Uy, Initial residual = 0.0086362, Final residual = 1.36891e-09, No Iterations 3
GAMGPCG:  Solving for G, Initial residual = 0.139734, Final residual = 4.68928e-05, No Iterations 6
DILUPBiCGStab:  Solving for O2, Initial residual = 0.00364408, Final residual = 3.81777e-09, No Iterations 3
DILUPBiCGStab:  Solving for H2O, Initial residual = 0.00364439, Final residual = 3.81802e-09, No Iterations 3
DILUPBiCGStab:  Solving for CH4, Initial residual = 0, Final residual = 0, No Iterations 0
DILUPBiCGStab:  Solving for CO2, Initial residual = 0.00364439, Final residual = 3.81801e-09, No Iterations 3
DILUPBiCGStab:  Solving for h, Initial residual = 0.00402007, Final residual = 3.04332e-09, No Iterations 3
min/max(T) = 299.362, 1044.98
GAMGPCG:  Solving for p_rgh, Initial residual = 0.0242898, Final residual = 1.4081e-07, No Iterations 5
diagonal:  Solving for rho, Initial residual = 0, Final residual = 0, No Iterations 0
time step continuity errors : sum local = 6.79009e-09, global = -1.6643e-10, cumulative = -2.21279e-07
GAMGPCG:  Solving for p_rgh, Initial residual = 0.00361617, Final residual = 3.35689e-07, No Iterations 4
diagonal:  Solving for rho, Initial residual = 0, Final residual = 0, No Iterations 0
time step continuity errors : sum local = 1.50507e-08, global = 2.07885e-09, cumulative = -2.192e-07
DILUPBiCGStab:  Solving for omega, Initial residual = 0.000130904, Final residual = 2.08069e-09, No Iterations 2
DILUPBiCGStab:  Solving for k, Initial residual = 0.00525763, Final residual = 3.27109e-09, No Iterations 3

ExecutionTime = 1.57 s  ClockTime = 2 s

    Overall     = 0.00132136, 0.01
Time = 261

diagonal:  Solving for rho, Initial residual = 0, Final residual = 0, No Iterations 0

Execution time for mesh.update() = 0 s

DILUPBiCGStab:  Solving for Ux, Initial residual = 0.00550221, Final residual = 8.46969e-09, No Iterations 3
DILUPBiCGStab:  Solving for Uy, Initial residual = 0.00866018, Final residual = 1.45342e-09, No Iterations 3
DILUPBiCGStab:  Solving for O2, Initial residual = 0.00364018, Final residual = 3.90475e-09, No Iterations 3
DILUPBiCGStab:  Solving for H2O, Initial residual = 0.00364091, Final residual = 3.90401e-09, No Iterations 3
DILUPBiCGStab:  Solving for CH4, Initial residual = 0, Final residual = 0, No Iterations 0
DILUPBiCGStab:  Solving for CO2, Initial residual = 0.00364092, Final residual = 3.90402e-09, No Iterations 3
DILUPBiCGStab:  Solving for h, Initial residual = 0.00401819, Final residual = 3.14634e-09, No Iterations 3
min/max(T) = 299.357, 1044.98
GAMGPCG:  Solving for p_rgh, Initial residual = 0.0245021, Final residual = 1.33821e-07, No Iterations 5
diagonal:  Solving for rho, Initial residual = 0, Final residual = 0, No Iterations 0
time step continuity errors : sum local = 6.42291e-09, global = 1.52612e-13, cumulative = -2.192e-07
GAMGPCG:  Solving for p_rgh, Initial residual = 0.00371645, Final residual = 3.78277e-07, No Iterations 4
diagonal:  Solving for rho, Initial residual = 0, Final residual = 0, No Iterations 0
time step continuity errors : sum local = 1.6966e-08, global = 2.75758e-09, cumulative = -2.16443e-07
DILUPBiCGStab:  Solving for omega, Initial residual = 0.00013166, Final residual = 2.06267e-09, No Iterations 2
DILUPBiCGStab:  Solving for k, Initial residual = 0.0052399, Final residual = 2.84107e-09, No Iterations 3

ExecutionTime = 1.69 s  ClockTime = 2 s

    Overall     = 0.00132298, 0.01
Time = 262

diagonal:  Solving for rho, Initial residual = 0, Final residual = 0, No Iterations 0

Execution time for mesh.update() = 0 s

DILUPBiCGStab:  Solving for Ux, Initial residual = 0.00550511, Final residual = 7.89434e-09, No Iterations 3
DILUPBiCGStab:  Solving for Uy, Initial residual = 0.00863282, Final residual = 1.34009e-09, No Iterations 3
DILUPBiCGStab:  Solving for O2, Initial residual = 0.00363366, Final residual = 3.35776e-09, No Iterations 3
DILUPBiCGStab:  Solving for H2O, Initial residual = 0.00363396, Final residual = 3.35789e-09, No Iterations 3
DILUPBiCGStab:  Solving for CH4, Initial residual = 0, Final residual = 0, No Iterations 0
DILUPBiCGStab:  Solving for CO2, Initial residual = 0.00363396, Final residual = 3.35789e-09, No Iterations 3
DILUPBiCGStab:  Solving for h, Initial residual = 0.00401261, Final residual = 3.0647e-09, No Iterations 3
min/max(T) = 299.383, 1044.98
GAMGPCG:  Solving for p_rgh, Initial residual = 0.0246019, Final residual = 1.19794e-07, No Iterations 5
diagonal:  Solving for rho, Initial residual = 0, Final residual = 0, No Iterations 0
time step continuity errors : sum local = 5.64256e-09, global = -8.15763e-10, cumulative = -2.17258e-07
GAMGPCG:  Solving for p_rgh, Initial residual = 0.00370041, Final residual = 4.05151e-07, No Iterations 4
diagonal:  Solving for rho, Initial residual = 0, Final residual = 0, No Iterations 0
time step continuity errors : sum local = 1.81605e-08, global = 3.2849e-09, cumulative = -2.13974e-07
DILUPBiCGStab:  Solving for omega, Initial residual = 0.000131384, Final residual = 2.02906e-09, No Iterations 2
DILUPBiCGStab:  Solving for k, Initial residual = 0.00522479, Final residual = 3.18452e-09, No Iterations 3

ExecutionTime = 1.8 s  ClockTime = 2 s

    Overall     = 0.00131454, 0.01
Time = 263

diagonal:  Solving for rho, Initial residual = 0, Final residual = 0, No Iterations 0

Execution time for mesh.update() = 0 s

DILUPBiCGStab:  Solving for Ux, Initial residual = 0.00552603, Final residual = 8.30598e-09, No Iterations 3
DILUPBiCGStab:  Solving for Uy, Initial residual = 0.00863503, Final residual = 1.30627e-09, No Iterations 3
DILUPBiCGStab:  Solving for O2, Initial residual = 0.00363492, Final residual = 3.66051e-09, No Iterations 3
DILUPBiCGStab:  Solving for H2O, Initial residual = 0.00363563, Final residual = 3.66045e-09, No Iterations 3
DILUPBiCGStab:  Solving for CH4, Initial residual = 0, Final residual = 0, No Iterations 0
DILUPBiCGStab:  Solving for CO2, Initial residual = 0.00363563, Final residual = 3.66045e-09, No Iterations 3
DILUPBiCGStab:  Solving for h, Initial residual = 0.00401564, Final residual = 3.02697e-09, No Iterations 3
min/max(T) = 299.384, 1044.98
GAMGPCG:  Solving for p_rgh, Initial residual = 0.0248523, Final residual = 1.38298e-07, No Iterations 5
diagonal:  Solving for rho, Initial residual = 0, Final residual = 0, No Iterations 0
time step continuity errors : sum local = 6.52592e-09, global = 2.77304e-10, cumulative = -2.13696e-07
GAMGPCG:  Solving for p_rgh, Initial residual = 0.00382113, Final residual = 4.40599e-07, No Iterations 4
diagonal:  Solving for rho, Initial residual = 0, Final residual = 0, No Iterations 0
time step continuity errors : sum local = 1.97366e-08, global = 3.98879e-09, cumulative = -2.09707e-07
DILUPBiCGStab:  Solving for omega, Initial residual = 0.00013124, Final residual = 2.08462e-09, No Iterations 2
DILUPBiCGStab:  Solving for k, Initial residual = 0.00520678, Final residual = 2.73373e-09, No Iterations 3

ExecutionTime = 1.92 s  ClockTime = 2 s

    Overall     = 0.00131641, 0.01
Time = 264

diagonal:  Solving for rho, Initial residual = 0, Final residual = 0, No Iterations 0

Execution time for mesh.update() = 0 s

DILUPBiCGStab:  Solving for Ux, Initial residual = 0.00552818, Final residual = 7.856e-09, No Iterations 3
DILUPBiCGStab:  Solving for Uy, Initial residual = 0.00860682, Final residual = 1.21181e-09, No Iterations 3
DILUPBiCGStab:  Solving for O2, Initial residual = 0.00363604, Final residual = 3.53983e-09, No Iterations 3
DILUPBiCGStab:  Solving for H2O, Initial residual = 0.0036363, Final residual = 3.53975e-09, No Iterations 3
DILUPBiCGStab:  Solving for CH4, Initial residual = 0, Final residual = 0, No Iterations 0
DILUPBiCGStab:  Solving for CO2, Initial residual = 0.0036363, Final residual = 3.53974e-09, No Iterations 3
DILUPBiCGStab:  Solving for h, Initial residual = 0.00401393, Final residual = 2.88362e-09, No Iterations 3
min/max(T) = 299.429, 1044.98
GAMGPCG:  Solving for p_rgh, Initial residual = 0.0245463, Final residual = 2.02071e-07, No Iterations 5
diagonal:  Solving for rho, Initial residual = 0, Final residual = 0, No Iterations 0
time step continuity errors : sum local = 9.43412e-09, global = -9.22338e-10, cumulative = -2.1063e-07
GAMGPCG:  Solving for p_rgh, Initial residual = 0.00377785, Final residual = 4.53421e-07, No Iterations 4
diagonal:  Solving for rho, Initial residual = 0, Final residual = 0, No Iterations 0
time step continuity errors : sum local = 2.03424e-08, global = 4.59768e-09, cumulative = -2.06032e-07
DILUPBiCGStab:  Solving for omega, Initial residual = 0.000131978, Final residual = 2.21397e-09, No Iterations 2
DILUPBiCGStab:  Solving for k, Initial residual = 0.00519704, Final residual = 2.67944e-09, No Iterations 3

ExecutionTime = 2.04 s  ClockTime = 2 s

    Overall     = 0.00130832, 0.01
Time = 265

diagonal:  Solving for rho, Initial residual = 0, Final residual = 0, No Iterations 0

Execution time for mesh.update() = 0 s

DILUPBiCGStab:  Solving for Ux, Initial residual = 0.0055434, Final residual = 6.31475e-09, No Iterations 3
DILUPBiCGStab:  Solving for Uy, Initial residual = 0.00859422, Final residual = 1.24791e-09, No Iterations 3
DILUPBiCGStab:  Solving for O2, Initial residual = 0.00363883, Final residual = 4.35562e-09, No Iterations 3
DILUPBiCGStab:  Solving for H2O, Initial residual = 0.00363945, Final residual = 4.35547e-09, No Iterations 3
DILUPBiCGStab:  Solving for CH4, Initial residual = 0, Final residual = 0, No Iterations 0
DILUPBiCGStab:  Solving for CO2, Initial residual = 0.00363945, Final residual = 4.35547e-09, No Iterations 3
DILUPBiCGStab:  Solving for h, Initial residual = 0.00401896, Final residual = 3.76512e-09, No Iterations 3
min/max(T) = 299.461, 1044.98
GAMGPCG:  Solving for p_rgh, Initial residual = 0.0249766, Final residual = 2.18444e-07, No Iterations 5
diagonal:  Solving for rho, Initial residual = 0, Final residual = 0, No Iterations 0
time step continuity errors : sum local = 1.00953e-08, global = -1.14739e-09, cumulative = -2.07179e-07
GAMGPCG:  Solving for p_rgh, Initial residual = 0.00379337, Final residual = 4.73266e-07, No Iterations 4
diagonal:  Solving for rho, Initial residual = 0, Final residual = 0, No Iterations 0
time step continuity errors : sum local = 2.1102e-08, global = 4.7872e-09, cumulative = -2.02392e-07
DILUPBiCGStab:  Solving for omega, Initial residual = 0.00013214, Final residual = 2.43269e-09, No Iterations 2
DILUPBiCGStab:  Solving for k, Initial residual = 0.00520161, Final residual = 3.55479e-09, No Iterations 3

ExecutionTime = 2.15 s  ClockTime = 3 s

    Overall     = 0.0013093, 0.01
Time = 266

diagonal:  Solving for rho, Initial residual = 0, Final residual = 0, No Iterations 0

Execution time for mesh.update() = 0 s

DILUPBiCGStab:  Solving for Ux, Initial residual = 0.00553398, Final residual = 5.39041e-09, No Iterations 3
DILUPBiCGStab:  Solving for Uy, Initial residual = 0.00855384, Final residual = 1.20279e-09, No Iterations 3
DILUPBiCGStab:  Solving for O2, Initial residual = 0.0036362, Final residual = 4.438e-09, No Iterations 3
DILUPBiCGStab:  Solving for H2O, Initial residual = 0.00363652, Final residual = 4.43792e-09, No Iterations 3
DILUPBiCGStab:  Solving for CH4, Initial residual = 0, Final residual = 0, No Iterations 0
DILUPBiCGStab:  Solving for CO2, Initial residual = 0.00363652, Final residual = 4.43792e-09, No Iterations 3
DILUPBiCGStab:  Solving for h, Initial residual = 0.0040161, Final residual = 3.82996e-09, No Iterations 3
min/max(T) = 299.521, 1044.98
GAMGPCG:  Solving for p_rgh, Initial residual = 0.0247094, Final residual = 2.72419e-07, No Iterations 5
diagonal:  Solving for rho, Initial residual = 0, Final residual = 0, No Iterations 0
time step continuity errors : sum local = 1.25277e-08, global = -8.00593e-10, cumulative = -2.03193e-07
GAMGPCG:  Solving for p_rgh, Initial residual = 0.0037239, Final residual = 5.10596e-07, No Iterations 4
diagonal:  Solving for rho, Initial residual = 0, Final residual = 0, No Iterations 0
time step continuity errors : sum local = 2.26109e-08, global = 4.89056e-09, cumulative = -1.98302e-07
DILUPBiCGStab:  Solving for omega, Initial residual = 0.000131726, Final residual = 2.61059e-09, No Iterations 2
DILUPBiCGStab:  Solving for k, Initial residual = 0.00518732, Final residual = 8.44627e-10, No Iterations 3

ExecutionTime = 2.27 s  ClockTime = 3 s

    Overall     = 0.00130068, 0.01
Time = 267

diagonal:  Solving for rho, Initial residual = 0, Final residual = 0, No Iterations 0

Execution time for mesh.update() = 0 s

DILUPBiCGStab:  Solving for Ux, Initial residual = 0.00551951, Final residual = 5.93743e-09, No Iterations 3
DILUPBiCGStab:  Solving for Uy, Initial residual = 0.00853492, Final residual = 1.15912e-09, No Iterations 3
DILUPBiCGStab:  Solving for O2, Initial residual = 0.0036397, Final residual = 4.99848e-09, No Iterations 3
DILUPBiCGStab:  Solving for H2O, Initial residual = 0.00364025, Final residual = 4.99833e-09, No Iterations 3
DILUPBiCGStab:  Solving for CH4, Initial residual = 0, Final residual = 0, No Iterations 0
DILUPBiCGStab:  Solving for CO2, Initial residual = 0.00364025, Final residual = 4.99833e-09, No Iterations 3
DILUPBiCGStab:  Solving for h, Initial residual = 0.00402692, Final residual = 4.26467e-09, No Iterations 3
min/max(T) = 299.546, 1044.98
GAMGPCG:  Solving for p_rgh, Initial residual = 0.024787, Final residual = 2.97689e-07, No Iterations 5
diagonal:  Solving for rho, Initial residual = 0, Final residual = 0, No Iterations 0
time step continuity errors : sum local = 1.35921e-08, global = -8.43148e-10, cumulative = -1.99145e-07
GAMGPCG:  Solving for p_rgh, Initial residual = 0.00370972, Final residual = 5.14067e-07, No Iterations 4
diagonal:  Solving for rho, Initial residual = 0, Final residual = 0, No Iterations 0
time step continuity errors : sum local = 2.2603e-08, global = 4.6652e-09, cumulative = -1.9448e-07
DILUPBiCGStab:  Solving for omega, Initial residual = 0.000131471, Final residual = 2.68912e-09, No Iterations 2
DILUPBiCGStab:  Solving for k, Initial residual = 0.00516614, Final residual = 4.06397e-09, No Iterations 3

ExecutionTime = 2.39 s  ClockTime = 3 s

    Overall     = 0.00130188, 0.01
Time = 268

diagonal:  Solving for rho, Initial residual = 0, Final residual = 0, No Iterations 0

Execution time for mesh.update() = 0 s

DILUPBiCGStab:  Solving for Ux, Initial residual = 0.00551369, Final residual = 5.97215e-09, No Iterations 3
DILUPBiCGStab:  Solving for Uy, Initial residual = 0.00850125, Final residual = 1.04963e-09, No Iterations 3
DILUPBiCGStab:  Solving for O2, Initial residual = 0.00364216, Final residual = 4.69577e-09, No Iterations 3
DILUPBiCGStab:  Solving for H2O, Initial residual = 0.00364251, Final residual = 4.69598e-09, No Iterations 3
DILUPBiCGStab:  Solving for CH4, Initial residual = 0, Final residual = 0, No Iterations 0
DILUPBiCGStab:  Solving for CO2, Initial residual = 0.00364251, Final residual = 4.69599e-09, No Iterations 3
DILUPBiCGStab:  Solving for h, Initial residual = 0.00402913, Final residual = 4.12096e-09, No Iterations 3
min/max(T) = 299.617, 1044.98
GAMGPCG:  Solving for p_rgh, Initial residual = 0.0242688, Final residual = 3.52697e-07, No Iterations 5
diagonal:  Solving for rho, Initial residual = 0, Final residual = 0, No Iterations 0
time step continuity errors : sum local = 1.60269e-08, global = -5.29923e-10, cumulative = -1.9501e-07
GAMGPCG:  Solving for p_rgh, Initial residual = 0.00361532, Final residual = 5.15176e-07, No Iterations 4
diagonal:  Solving for rho, Initial residual = 0, Final residual = 0, No Iterations 0
time step continuity errors : sum local = 2.25027e-08, global = 4.50012e-09, cumulative = -1.9051e-07
DILUPBiCGStab:  Solving for omega, Initial residual = 0.000131322, Final residual = 2.68645e-09, No Iterations 2
DILUPBiCGStab:  Solving for k, Initial residual = 0.00515523, Final residual = 2.53998e-09, No Iterations 3

ExecutionTime = 2.51 s  ClockTime = 3 s

    Overall     = 0.00129288, 0.01
Time = 269

diagonal:  Solving for rho, Initial residual = 0, Final residual = 0, No Iterations 0

Execution time for mesh.update() = 0 s

DILUPBiCGStab:  Solving for Ux, Initial residual = 0.00549975, Final residual = 6.22418e-09, No Iterations 3
DILUPBiCGStab:  Solving for Uy, Initial residual = 0.00847955, Final residual = 9.69726e-10, No Iterations 3
DILUPBiCGStab:  Solving for O2, Initial residual = 0.0036452, Final residual = 5.66886e-09, No Iterations 3
DILUPBiCGStab:  Solving for H2O, Initial residual = 0.00364565, Final residual = 5.66863e-09, No Iterations 3
DILUPBiCGStab:  Solving for CH4, Initial residual = 0, Final residual = 0, No Iterations 0
DILUPBiCGStab:  Solving for CO2, Initial residual = 0.00364565, Final residual = 5.66863e-09, No Iterations 3
DILUPBiCGStab:  Solving for h, Initial residual = 0.00403909, Final residual = 5.11146e-09, No Iterations 3
min/max(T) = 299.64, 1044.98
GAMGPCG:  Solving for p_rgh, Initial residual = 0.0242806, Final residual = 3.32094e-07, No Iterations 5
diagonal:  Solving for rho, Initial residual = 0, Final residual = 0, No Iterations 0
time step continuity errors : sum local = 1.50023e-08, global = -4.68121e-10, cumulative = -1.90978e-07
GAMGPCG:  Solving for p_rgh, Initial residual = 0.0036536, Final residual = 5.12959e-07, No Iterations 4
diagonal:  Solving for rho, Initial residual = 0, Final residual = 0, No Iterations 0
time step continuity errors : sum local = 2.21497e-08, global = 4.20507e-09, cumulative = -1.86773e-07
DILUPBiCGStab:  Solving for omega, Initial residual = 0.000131538, Final residual = 2.76401e-09, No Iterations 2
DILUPBiCGStab:  Solving for k, Initial residual = 0.00514093, Final residual = 2.66176e-09, No Iterations 3

ExecutionTime = 2.63 s  ClockTime = 3 s

    Overall     = 0.00129333, 0.01
Time = 270

diagonal:  Solving for rho, Initial residual = 0, Final residual = 0, No Iterations 0

Execution time for mesh.update() = 0 s

DILUPBiCGStab:  Solving for Ux, Initial residual = 0.00548134, Final residual = 5.49272e-09, No Iterations 3
DILUPBiCGStab:  Solving for Uy, Initial residual = 0.00844892, Final residual = 9.94557e-09, No Iterations 3
GAMGPCG:  Solving for G, Initial residual = 0.167101, Final residual = 7.66168e-05, No Iterations 5
DILUPBiCGStab:  Solving for O2, Initial residual = 0.00364908, Final residual = 5.81321e-09, No Iterations 3
DILUPBiCGStab:  Solving for H2O, Initial residual = 0.00364929, Final residual = 5.81347e-09, No Iterations 3
DILUPBiCGStab:  Solving for CH4, Initial residual = 0, Final residual = 0, No Iterations 0
DILUPBiCGStab:  Solving for CO2, Initial residual = 0.00364929, Final residual = 5.81347e-09, No Iterations 3
DILUPBiCGStab:  Solving for h, Initial residual = 0.00403956, Final residual = 5.32298e-09, No Iterations 3
min/max(T) = 299.718, 1044.98
GAMGPCG:  Solving for p_rgh, Initial residual = 0.0239782, Final residual = 3.54256e-07, No Iterations 5
diagonal:  Solving for rho, Initial residual = 0, Final residual = 0, No Iterations 0
time step continuity errors : sum local = 1.58973e-08, global = -3.6869e-10, cumulative = -1.87142e-07
GAMGPCG:  Solving for p_rgh, Initial residual = 0.00351527, Final residual = 5.2335e-07, No Iterations 4
diagonal:  Solving for rho, Initial residual = 0, Final residual = 0, No Iterations 0
time step continuity errors : sum local = 2.24286e-08, global = 4.23456e-09, cumulative = -1.82907e-07
DILUPBiCGStab:  Solving for omega, Initial residual = 0.000131855, Final residual = 2.80669e-09, No Iterations 2
DILUPBiCGStab:  Solving for k, Initial residual = 0.0051355, Final residual = 3.08379e-09, No Iterations 3

ExecutionTime = 2.88 s  ClockTime = 3 s

    Overall     = 0.0012842, 0.01
Time = 271

diagonal:  Solving for rho, Initial residual = 0, Final residual = 0, No Iterations 0

Execution time for mesh.update() = 0 s

DILUPBiCGStab:  Solving for Ux, Initial residual = 0.00546039, Final residual = 5.99658e-09, No Iterations 3
DILUPBiCGStab:  Solving for Uy, Initial residual = 0.0084228, Final residual = 9.00331e-09, No Iterations 3
DILUPBiCGStab:  Solving for O2, Initial residual = 0.00365041, Final residual = 9.54594e-09, No Iterations 3
DILUPBiCGStab:  Solving for H2O, Initial residual = 0.00365075, Final residual = 9.54487e-09, No Iterations 3
DILUPBiCGStab:  Solving for CH4, Initial residual = 0, Final residual = 0, No Iterations 0
DILUPBiCGStab:  Solving for CO2, Initial residual = 0.00365075, Final residual = 9.54487e-09, No Iterations 3
DILUPBiCGStab:  Solving for h, Initial residual = 0.00404616, Final residual = 7.32379e-09, No Iterations 3
min/max(T) = 299.74, 1044.98
GAMGPCG:  Solving for p_rgh, Initial residual = 0.0238383, Final residual = 2.98227e-07, No Iterations 5
diagonal:  Solving for rho, Initial residual = 0, Final residual = 0, No Iterations 0
time step continuity errors : sum local = 1.33583e-08, global = -8.3982e-11, cumulative = -1.82991e-07
GAMGPCG:  Solving for p_rgh, Initial residual = 0.00355916, Final residual = 5.43966e-07, No Iterations 4
diagonal:  Solving for rho, Initial residual = 0, Final residual = 0, No Iterations 0
time step continuity errors : sum local = 2.31401e-08, global = 4.31985e-09, cumulative = -1.78671e-07
DILUPBiCGStab:  Solving for omega, Initial residual = 0.000132057, Final residual = 2.75841e-09, No Iterations 2
DILUPBiCGStab:  Solving for k, Initial residual = 0.00513732, Final residual = 8.89052e-09, No Iterations 3

ExecutionTime = 3 s  ClockTime = 3 s

    Overall     = 0.00128394, 0.01
Time = 272

diagonal:  Solving for rho, Initial residual = 0, Final residual = 0, No Iterations 0

Execution time for mesh.update() = 0 s

DILUPBiCGStab:  Solving for Ux, Initial residual = 0.00543857, Final residual = 6.71527e-09, No Iterations 3
DILUPBiCGStab:  Solving for Uy, Initial residual = 0.00838169, Final residual = 9.0068e-09, No Iterations 3
DILUPBiCGStab:  Solving for O2, Initial residual = 0.00365242, Final residual = 8.35423e-09, No Iterations 3
DILUPBiCGStab:  Solving for H2O, Initial residual = 0.00365249, Final residual = 8.35432e-09, No Iterations 3
DILUPBiCGStab:  Solving for CH4, Initial residual = 0, Final residual = 0, No Iterations 0
DILUPBiCGStab:  Solving for CO2, Initial residual = 0.00365249, Final residual = 8.35432e-09, No Iterations 3
DILUPBiCGStab:  Solving for h, Initial residual = 0.00404835, Final residual = 7.41754e-09, No Iterations 3
min/max(T) = 299.828, 1044.98
GAMGPCG:  Solving for p_rgh, Initial residual = 0.023338, Final residual = 3.08736e-07, No Iterations 5
diagonal:  Solving for rho, Initial residual = 0, Final residual = 0, No Iterations 0
time step continuity errors : sum local = 1.36792e-08, global = -1.62566e-10, cumulative = -1.78834e-07
GAMGPCG:  Solving for p_rgh, Initial residual = 0.00345008, Final residual = 5.7143e-07, No Iterations 4
diagonal:  Solving for rho, Initial residual = 0, Final residual = 0, No Iterations 0
time step continuity errors : sum local = 2.41359e-08, global = 4.6428e-09, cumulative = -1.74191e-07
DILUPBiCGStab:  Solving for omega, Initial residual = 0.000131318, Final residual = 2.79013e-09, No Iterations 2
DILUPBiCGStab:  Solving for k, Initial residual = 0.00513118, Final residual = 5.47132e-09, No Iterations 3

ExecutionTime = 3.12 s  ClockTime = 4 s

    Overall     = 0.00127509, 0.01
Time = 273

diagonal:  Solving for rho, Initial residual = 0, Final residual = 0, No Iterations 0

Execution time for mesh.update() = 0 s

DILUPBiCGStab:  Solving for Ux, Initial residual = 0.00540609, Final residual = 7.839e-09, No Iterations 3
DILUPBiCGStab:  Solving for Uy, Initial residual = 0.00836033, Final residual = 8.31973e-09, No Iterations 3
DILUPBiCGStab:  Solving for O2, Initial residual = 0.00364891, Final residual = 6.22048e-09, No Iterations 3
DILUPBiCGStab:  Solving for H2O, Initial residual = 0.00364912, Final residual = 6.22037e-09, No Iterations 3
DILUPBiCGStab:  Solving for CH4, Initial residual = 0, Final residual = 0, No Iterations 0
DILUPBiCGStab:  Solving for CO2, Initial residual = 0.00364912, Final residual = 6.22037e-09, No Iterations 3
DILUPBiCGStab:  Solving for h, Initial residual = 0.00404791, Final residual = 6.24835e-09, No Iterations 3
min/max(T) = 299.848, 1044.98
GAMGPCG:  Solving for p_rgh, Initial residual = 0.0236078, Final residual = 2.85966e-07, No Iterations 5
diagonal:  Solving for rho, Initial residual = 0, Final residual = 0, No Iterations 0
time step continuity errors : sum local = 1.26316e-08, global = -1.855e-11, cumulative = -1.7421e-07
GAMGPCG:  Solving for p_rgh, Initial residual = 0.0034943, Final residual = 5.58702e-07, No Iterations 4
diagonal:  Solving for rho, Initial residual = 0, Final residual = 0, No Iterations 0
time step continuity errors : sum local = 2.36117e-08, global = 4.56185e-09, cumulative = -1.69648e-07
DILUPBiCGStab:  Solving for omega, Initial residual = 0.000131176, Final residual = 2.89796e-09, No Iterations 2
DILUPBiCGStab:  Solving for k, Initial residual = 0.00512612, Final residual = 1.39478e-09, No Iterations 3

ExecutionTime = 3.24 s  ClockTime = 4 s

    Overall     = 0.00127422, 0.01
Time = 274

diagonal:  Solving for rho, Initial residual = 0, Final residual = 0, No Iterations 0

Execution time for mesh.update() = 0 s

DILUPBiCGStab:  Solving for Ux, Initial residual = 0.00539503, Final residual = 8.29408e-09, No Iterations 3
DILUPBiCGStab:  Solving for Uy, Initial residual = 0.00832652, Final residual = 8.34539e-09, No Iterations 3
DILUPBiCGStab:  Solving for O2, Initial residual = 0.00364942, Final residual = 5.18265e-09, No Iterations 3
DILUPBiCGStab:  Solving for H2O, Initial residual = 0.00364944, Final residual = 5.18263e-09, No Iterations 3
DILUPBiCGStab:  Solving for CH4, Initial residual = 0, Final residual = 0, No Iterations 0
DILUPBiCGStab:  Solving for CO2, Initial residual = 0.00364944, Final residual = 5.18263e-09, No Iterations 3
DILUPBiCGStab:  Solving for h, Initial residual = 0.00404573, Final residual = 5.07627e-09, No Iterations 3
min/max(T) = 299.845, 1044.98
GAMGPCG:  Solving for p_rgh, Initial residual = 0.0231141, Final residual = 3.25247e-07, No Iterations 5
diagonal:  Solving for rho, Initial residual = 0, Final residual = 0, No Iterations 0
time step continuity errors : sum local = 1.41818e-08, global = -3.45704e-12, cumulative = -1.69651e-07
GAMGPCG:  Solving for p_rgh, Initial residual = 0.00342659, Final residual = 5.74177e-07, No Iterations 4
diagonal:  Solving for rho, Initial residual = 0, Final residual = 0, No Iterations 0
time step continuity errors : sum local = 2.41671e-08, global = 4.59898e-09, cumulative = -1.65052e-07
DILUPBiCGStab:  Solving for omega, Initial residual = 0.000130475, Final residual = 2.77864e-09, No Iterations 2
DILUPBiCGStab:  Solving for k, Initial residual = 0.00511655, Final residual = 3.86845e-09, No Iterations 3

ExecutionTime = 3.35 s  ClockTime = 4 s

    Overall     = 0.00126653, 0.01
Time = 275

diagonal:  Solving for rho, Initial residual = 0, Final residual = 0, No Iterations 0

Execution time for mesh.update() = 0 s

DILUPBiCGStab:  Solving for Ux, Initial residual = 0.00537403, Final residual = 9.06009e-09, No Iterations 3
DILUPBiCGStab:  Solving for Uy, Initial residual = 0.00828219, Final residual = 8.86172e-09, No Iterations 3
DILUPBiCGStab:  Solving for O2, Initial residual = 0.00364819, Final residual = 4.39752e-09, No Iterations 3
DILUPBiCGStab:  Solving for H2O, Initial residual = 0.00364831, Final residual = 4.39753e-09, No Iterations 3
DILUPBiCGStab:  Solving for CH4, Initial residual = 0, Final residual = 0, No Iterations 0
DILUPBiCGStab:  Solving for CO2, Initial residual = 0.00364831, Final residual = 4.39753e-09, No Iterations 3
DILUPBiCGStab:  Solving for h, Initial residual = 0.00404875, Final residual = 4.35269e-09, No Iterations 3
min/max(T) = 299.851, 1044.98
GAMGPCG:  Solving for p_rgh, Initial residual = 0.0232278, Final residual = 2.99804e-07, No Iterations 5
diagonal:  Solving for rho, Initial residual = 0, Final residual = 0, No Iterations 0
time step continuity errors : sum local = 1.3016e-08, global = 9.64037e-11, cumulative = -1.64956e-07
GAMGPCG:  Solving for p_rgh, Initial residual = 0.00343623, Final residual = 5.88009e-07, No Iterations 4
diagonal:  Solving for rho, Initial residual = 0, Final residual = 0, No Iterations 0
time step continuity errors : sum local = 2.47429e-08, global = 4.52999e-09, cumulative = -1.60426e-07
DILUPBiCGStab:  Solving for omega, Initial residual = 0.00013051, Final residual = 2.73137e-09, No Iterations 2
DILUPBiCGStab:  Solving for k, Initial residual = 0.00511718, Final residual = 3.71362e-09, No Iterations 3

ExecutionTime = 3.47 s  ClockTime = 4 s

    Overall     = 0.00126524, 0.01
Time = 276

diagonal:  Solving for rho, Initial residual = 0, Final residual = 0, No Iterations 0

Execution time for mesh.update() = 0.01 s

DILUPBiCGStab:  Solving for Ux, Initial residual = 0.00535714, Final residual = 7.14984e-10, No Iterations 3
DILUPBiCGStab:  Solving for Uy, Initial residual = 0.00825122, Final residual = 9.19345e-09, No Iterations 3
DILUPBiCGStab:  Solving for O2, Initial residual = 0.00364283, Final residual = 4.2702e-09, No Iterations 3
DILUPBiCGStab:  Solving for H2O, Initial residual = 0.00364289, Final residual = 4.27016e-09, No Iterations 3
DILUPBiCGStab:  Solving for CH4, Initial residual = 0, Final residual = 0, No Iterations 0
DILUPBiCGStab:  Solving for CO2, Initial residual = 0.00364289, Final residual = 4.27016e-09, No Iterations 3
DILUPBiCGStab:  Solving for h, Initial residual = 0.00404283, Final residual = 4.36605e-09, No Iterations 3
min/max(T) = 299.848, 1044.98
GAMGPCG:  Solving for p_rgh, Initial residual = 0.0224237, Final residual = 3.04558e-07, No Iterations 5
diagonal:  Solving for rho, Initial residual = 0, Final residual = 0, No Iterations 0
time step continuity errors : sum local = 1.31905e-08, global = -7.71554e-11, cumulative = -1.60503e-07
GAMGPCG:  Solving for p_rgh, Initial residual = 0.00335826, Final residual = 6.19717e-07, No Iterations 4
diagonal:  Solving for rho, Initial residual = 0, Final residual = 0, No Iterations 0
time step continuity errors : sum local = 2.60046e-08, global = 4.67835e-09, cumulative = -1.55825e-07
DILUPBiCGStab:  Solving for omega, Initial residual = 0.000130885, Final residual = 2.62868e-09, No Iterations 2
DILUPBiCGStab:  Solving for k, Initial residual = 0.00511529, Final residual = 3.61067e-09, No Iterations 3

ExecutionTime = 3.59 s  ClockTime = 4 s

    Overall     = 0.00125879, 0.01
Time = 277

diagonal:  Solving for rho, Initial residual = 0, Final residual = 0, No Iterations 0

Execution time for mesh.update() = 0 s

DILUPBiCGStab:  Solving for Ux, Initial residual = 0.00532607, Final residual = 9.36003e-09, No Iterations 3
DILUPBiCGStab:  Solving for Uy, Initial residual = 0.00821892, Final residual = 9.72777e-09, No Iterations 3
DILUPBiCGStab:  Solving for O2, Initial residual = 0.00363914, Final residual = 4.36069e-09, No Iterations 3
DILUPBiCGStab:  Solving for H2O, Initial residual = 0.00363922, Final residual = 4.3607e-09, No Iterations 3
DILUPBiCGStab:  Solving for CH4, Initial residual = 0, Final residual = 0, No Iterations 0
DILUPBiCGStab:  Solving for CO2, Initial residual = 0.00363922, Final residual = 4.3607e-09, No Iterations 3
DILUPBiCGStab:  Solving for h, Initial residual = 0.00404147, Final residual = 4.54729e-09, No Iterations 3
min/max(T) = 299.856, 1044.98
GAMGPCG:  Solving for p_rgh, Initial residual = 0.0225819, Final residual = 2.71745e-07, No Iterations 5
diagonal:  Solving for rho, Initial residual = 0, Final residual = 0, No Iterations 0
time step continuity errors : sum local = 1.17182e-08, global = 1.21621e-10, cumulative = -1.55703e-07
GAMGPCG:  Solving for p_rgh, Initial residual = 0.00335667, Final residual = 6.12988e-07, No Iterations 4
diagonal:  Solving for rho, Initial residual = 0, Final residual = 0, No Iterations 0
time step continuity errors : sum local = 2.57146e-08, global = 4.58867e-09, cumulative = -1.51114e-07
DILUPBiCGStab:  Solving for omega, Initial residual = 0.00013064, Final residual = 2.41414e-09, No Iterations 2
DILUPBiCGStab:  Solving for k, Initial residual = 0.00510418, Final residual = 3.49879e-09, No Iterations 3

ExecutionTime = 3.71 s  ClockTime = 4 s

    Overall     = 0.0012583, 0.01
Time = 278

diagonal:  Solving for rho, Initial residual = 0, Final residual = 0, No Iterations 0

Execution time for mesh.update() = 0 s

DILUPBiCGStab:  Solving for Ux, Initial residual = 0.00531423, Final residual = 9.09768e-09, No Iterations 3
DILUPBiCGStab:  Solving for Uy, Initial residual = 0.00815843, Final residual = 1.18995e-09, No Iterations 3
DILUPBiCGStab:  Solving for O2, Initial residual = 0.00363167, Final residual = 4.13067e-09, No Iterations 3
DILUPBiCGStab:  Solving for H2O, Initial residual = 0.00363178, Final residual = 4.13064e-09, No Iterations 3
DILUPBiCGStab:  Solving for CH4, Initial residual = 0, Final residual = 0, No Iterations 0
DILUPBiCGStab:  Solving for CO2, Initial residual = 0.00363178, Final residual = 4.13064e-09, No Iterations 3
DILUPBiCGStab:  Solving for h, Initial residual = 0.00403352, Final residual = 4.28322e-09, No Iterations 3
min/max(T) = 299.852, 1044.98
GAMGPCG:  Solving for p_rgh, Initial residual = 0.0225164, Final residual = 2.72239e-07, No Iterations 5
diagonal:  Solving for rho, Initial residual = 0, Final residual = 0, No Iterations 0
time step continuity errors : sum local = 1.18302e-08, global = -1.95788e-10, cumulative = -1.5131e-07
GAMGPCG:  Solving for p_rgh, Initial residual = 0.0033583, Final residual = 6.29462e-07, No Iterations 4
diagonal:  Solving for rho, Initial residual = 0, Final residual = 0, No Iterations 0
time step continuity errors : sum local = 2.63832e-08, global = 4.69968e-09, cumulative = -1.46611e-07
DILUPBiCGStab:  Solving for omega, Initial residual = 0.000129329, Final residual = 2.28384e-09, No Iterations 2
DILUPBiCGStab:  Solving for k, Initial residual = 0.00509516, Final residual = 3.21304e-09, No Iterations 3

ExecutionTime = 3.83 s  ClockTime = 4 s

    Overall     = 0.00125344, 0.01
Time = 279

diagonal:  Solving for rho, Initial residual = 0, Final residual = 0, No Iterations 0

Execution time for mesh.update() = 0 s

DILUPBiCGStab:  Solving for Ux, Initial residual = 0.00529209, Final residual = 8.50925e-09, No Iterations 3
DILUPBiCGStab:  Solving for Uy, Initial residual = 0.00813378, Final residual = 1.27044e-09, No Iterations 3
DILUPBiCGStab:  Solving for O2, Initial residual = 0.00363154, Final residual = 4.25419e-09, No Iterations 3
DILUPBiCGStab:  Solving for H2O, Initial residual = 0.00363162, Final residual = 4.25419e-09, No Iterations 3
DILUPBiCGStab:  Solving for CH4, Initial residual = 0, Final residual = 0, No Iterations 0
DILUPBiCGStab:  Solving for CO2, Initial residual = 0.00363162, Final residual = 4.25419e-09, No Iterations 3
DILUPBiCGStab:  Solving for h, Initial residual = 0.00403477, Final residual = 4.0848e-09, No Iterations 3
min/max(T) = 299.862, 1044.98
GAMGPCG:  Solving for p_rgh, Initial residual = 0.022606, Final residual = 2.58494e-07, No Iterations 5
diagonal:  Solving for rho, Initial residual = 0, Final residual = 0, No Iterations 0
time step continuity errors : sum local = 1.12559e-08, global = -3.16345e-10, cumulative = -1.46927e-07
GAMGPCG:  Solving for p_rgh, Initial residual = 0.00337768, Final residual = 6.50812e-07, No Iterations 4
diagonal:  Solving for rho, Initial residual = 0, Final residual = 0, No Iterations 0
time step continuity errors : sum local = 2.722e-08, global = 4.69857e-09, cumulative = -1.42228e-07
DILUPBiCGStab:  Solving for omega, Initial residual = 0.000128693, Final residual = 2.23565e-09, No Iterations 2
DILUPBiCGStab:  Solving for k, Initial residual = 0.00508855, Final residual = 3.38929e-09, No Iterations 3

ExecutionTime = 3.94 s  ClockTime = 4 s

    Overall     = 0.00125458, 0.01
Time = 280

diagonal:  Solving for rho, Initial residual = 0, Final residual = 0, No Iterations 0

Execution time for mesh.update() = 0 s

DILUPBiCGStab:  Solving for Ux, Initial residual = 0.0052722, Final residual = 8.55664e-09, No Iterations 3
DILUPBiCGStab:  Solving for Uy, Initial residual = 0.00808335, Final residual = 1.33338e-09, No Iterations 3
GAMGPCG:  Solving for G, Initial residual = 0.161962, Final residual = 4.39764e-05, No Iterations 6
DILUPBiCGStab:  Solving for O2, Initial residual = 0.00362039, Final residual = 3.81901e-09, No Iterations 3
DILUPBiCGStab:  Solving for H2O, Initial residual = 0.00362043, Final residual = 3.81898e-09, No Iterations 3
DILUPBiCGStab:  Solving for CH4, Initial residual = 0, Final residual = 0, No Iterations 0
DILUPBiCGStab:  Solving for CO2, Initial residual = 0.00362043, Final residual = 3.81899e-09, No Iterations 3
DILUPBiCGStab:  Solving for h, Initial residual = 0.00402501, Final residual = 3.88463e-09, No Iterations 3
min/max(T) = 299.858, 1044.98
GAMGPCG:  Solving for p_rgh, Initial residual = 0.022452, Final residual = 2.64466e-07, No Iterations 5
diagonal:  Solving for rho, Initial residual = 0, Final residual = 0, No Iterations 0
time step continuity errors : sum local = 1.15896e-08, global = -6.6237e-10, cumulative = -1.42891e-07
GAMGPCG:  Solving for p_rgh, Initial residual = 0.00338157, Final residual = 6.6939e-07, No Iterations 4
diagonal:  Solving for rho, Initial residual = 0, Final residual = 0, No Iterations 0
time step continuity errors : sum local = 2.80716e-08, global = 4.78437e-09, cumulative = -1.38106e-07
DILUPBiCGStab:  Solving for omega, Initial residual = 0.000127354, Final residual = 2.18282e-09, No Iterations 2
DILUPBiCGStab:  Solving for k, Initial residual = 0.0050722, Final residual = 3.26376e-09, No Iterations 3

ExecutionTime = 4.2 s  ClockTime = 5 s

    Overall     = 0.00125124, 0.01
Time = 281

diagonal:  Solving for rho, Initial residual = 0, Final residual = 0, No Iterations 0

Execution time for mesh.update() = 0 s

DILUPBiCGStab:  Solving for Ux, Initial residual = 0.00526455, Final residual = 7.44663e-09, No Iterations 3
DILUPBiCGStab:  Solving for Uy, Initial residual = 0.00807147, Final residual = 1.28669e-09, No Iterations 3
DILUPBiCGStab:  Solving for O2, Initial residual = 0.00361433, Final residual = 3.92486e-09, No Iterations 3
DILUPBiCGStab:  Solving for H2O, Initial residual = 0.00361435, Final residual = 3.92485e-09, No Iterations 3
DILUPBiCGStab:  Solving for CH4, Initial residual = 0, Final residual = 0, No Iterations 0
DILUPBiCGStab:  Solving for CO2, Initial residual = 0.00361435, Final residual = 3.92485e-09, No Iterations 3
DILUPBiCGStab:  Solving for h, Initial residual = 0.00401926, Final residual = 3.98791e-09, No Iterations 3
min/max(T) = 299.87, 1044.98
GAMGPCG:  Solving for p_rgh, Initial residual = 0.0224603, Final residual = 2.5311e-07, No Iterations 5
diagonal:  Solving for rho, Initial residual = 0, Final residual = 0, No Iterations 0
time step continuity errors : sum local = 1.10988e-08, global = -5.59368e-10, cumulative = -1.38666e-07
GAMGPCG:  Solving for p_rgh, Initial residual = 0.00346105, Final residual = 6.79492e-07, No Iterations 4
diagonal:  Solving for rho, Initial residual = 0, Final residual = 0, No Iterations 0
time step continuity errors : sum local = 2.84984e-08, global = 4.81358e-09, cumulative = -1.33852e-07
DILUPBiCGStab:  Solving for omega, Initial residual = 0.000126711, Final residual = 2.18805e-09, No Iterations 2
DILUPBiCGStab:  Solving for k, Initial residual = 0.0050578, Final residual = 3.52618e-09, No Iterations 3

ExecutionTime = 4.32 s  ClockTime = 5 s

    Overall     = 0.00125442, 0.01
Time = 282

diagonal:  Solving for rho, Initial residual = 0, Final residual = 0, No Iterations 0

Execution time for mesh.update() = 0 s

DILUPBiCGStab:  Solving for Ux, Initial residual = 0.00527011, Final residual = 6.26619e-09, No Iterations 3
DILUPBiCGStab:  Solving for Uy, Initial residual = 0.00800509, Final residual = 1.28868e-09, No Iterations 3
DILUPBiCGStab:  Solving for O2, Initial residual = 0.00360775, Final residual = 4.34698e-09, No Iterations 3
DILUPBiCGStab:  Solving for H2O, Initial residual = 0.00360779, Final residual = 4.34695e-09, No Iterations 3
DILUPBiCGStab:  Solving for CH4, Initial residual = 0, Final residual = 0, No Iterations 0
DILUPBiCGStab:  Solving for CO2, Initial residual = 0.00360779, Final residual = 4.34695e-09, No Iterations 3
DILUPBiCGStab:  Solving for h, Initial residual = 0.00402014, Final residual = 4.36278e-09, No Iterations 3
min/max(T) = 299.866, 1044.98
GAMGPCG:  Solving for p_rgh, Initial residual = 0.022886, Final residual = 2.49742e-07, No Iterations 5
diagonal:  Solving for rho, Initial residual = 0, Final residual = 0, No Iterations 0
time step continuity errors : sum local = 1.09934e-08, global = -7.12182e-10, cumulative = -1.34564e-07
GAMGPCG:  Solving for p_rgh, Initial residual = 0.00347406, Final residual = 6.74783e-07, No Iterations 4
diagonal:  Solving for rho, Initial residual = 0, Final residual = 0, No Iterations 0
time step continuity errors : sum local = 2.84352e-08, global = 4.86083e-09, cumulative = -1.29703e-07
DILUPBiCGStab:  Solving for omega, Initial residual = 0.000125562, Final residual = 2.23518e-09, No Iterations 2
DILUPBiCGStab:  Solving for k, Initial residual = 0.00504135, Final residual = 2.83853e-09, No Iterations 3

ExecutionTime = 4.43 s  ClockTime = 5 s

    Overall     = 0.00125301, 0.01
Time = 283

diagonal:  Solving for rho, Initial residual = 0, Final residual = 0, No Iterations 0

Execution time for mesh.update() = 0 s

DILUPBiCGStab:  Solving for Ux, Initial residual = 0.00527537, Final residual = 6.15969e-09, No Iterations 3
DILUPBiCGStab:  Solving for Uy, Initial residual = 0.00802679, Final residual = 1.21974e-09, No Iterations 3
DILUPBiCGStab:  Solving for O2, Initial residual = 0.0036019, Final residual = 4.79473e-09, No Iterations 3
DILUPBiCGStab:  Solving for H2O, Initial residual = 0.00360193, Final residual = 4.7947e-09, No Iterations 3
DILUPBiCGStab:  Solving for CH4, Initial residual = 0, Final residual = 0, No Iterations 0
DILUPBiCGStab:  Solving for CO2, Initial residual = 0.00360193, Final residual = 4.7947e-09, No Iterations 3
DILUPBiCGStab:  Solving for h, Initial residual = 0.00401867, Final residual = 4.79414e-09, No Iterations 3
min/max(T) = 299.878, 1044.98
GAMGPCG:  Solving for p_rgh, Initial residual = 0.0230839, Final residual = 2.31161e-07, No Iterations 5
diagonal:  Solving for rho, Initial residual = 0, Final residual = 0, No Iterations 0
time step continuity errors : sum local = 1.02432e-08, global = -6.96844e-10, cumulative = -1.304e-07
GAMGPCG:  Solving for p_rgh, Initial residual = 0.00354232, Final residual = 6.82912e-07, No Iterations 4
diagonal:  Solving for rho, Initial residual = 0, Final residual = 0, No Iterations 0
time step continuity errors : sum local = 2.86582e-08, global = 4.98884e-09, cumulative = -1.25411e-07
DILUPBiCGStab:  Solving for omega, Initial residual = 0.000124168, Final residual = 2.29216e-09, No Iterations 2
DILUPBiCGStab:  Solving for k, Initial residual = 0.00503042, Final residual = 2.29921e-09, No Iterations 3

ExecutionTime = 4.55 s  ClockTime = 5 s

    Overall     = 0.00125874, 0.01
Time = 284

diagonal:  Solving for rho, Initial residual = 0, Final residual = 0, No Iterations 0

Execution time for mesh.update() = 0 s

DILUPBiCGStab:  Solving for Ux, Initial residual = 0.00528145, Final residual = 6.40958e-09, No Iterations 3
DILUPBiCGStab:  Solving for Uy, Initial residual = 0.00799155, Final residual = 1.24429e-09, No Iterations 3
DILUPBiCGStab:  Solving for O2, Initial residual = 0.00360461, Final residual = 5.08666e-09, No Iterations 3
DILUPBiCGStab:  Solving for H2O, Initial residual = 0.00360466, Final residual = 5.08663e-09, No Iterations 3
DILUPBiCGStab:  Solving for CH4, Initial residual = 0, Final residual = 0, No Iterations 0
DILUPBiCGStab:  Solving for CO2, Initial residual = 0.00360466, Final residual = 5.08664e-09, No Iterations 3
DILUPBiCGStab:  Solving for h, Initial residual = 0.00402682, Final residual = 5.05448e-09, No Iterations 3
min/max(T) = 299.876, 1044.98
GAMGPCG:  Solving for p_rgh, Initial residual = 0.0233583, Final residual = 2.21131e-07, No Iterations 5
diagonal:  Solving for rho, Initial residual = 0, Final residual = 0, No Iterations 0
time step continuity errors : sum local = 9.80826e-09, global = -8.16783e-10, cumulative = -1.26228e-07
GAMGPCG:  Solving for p_rgh, Initial residual = 0.00361515, Final residual = 6.96837e-07, No Iterations 4
diagonal:  Solving for rho, Initial residual = 0, Final residual = 0, No Iterations 0
time step continuity errors : sum local = 2.92302e-08, global = 5.21105e-09, cumulative = -1.21017e-07
DILUPBiCGStab:  Solving for omega, Initial residual = 0.000124555, Final residual = 2.33099e-09, No Iterations 2
DILUPBiCGStab:  Solving for k, Initial residual = 0.00502731, Final residual = 2.30769e-09, No Iterations 3

ExecutionTime = 4.67 s  ClockTime = 5 s

    Overall     = 0.00125937, 0.01
Time = 285

diagonal:  Solving for rho, Initial residual = 0, Final residual = 0, No Iterations 0

Execution time for mesh.update() = 0 s

DILUPBiCGStab:  Solving for Ux, Initial residual = 0.00527389, Final residual = 6.6599e-09, No Iterations 3
DILUPBiCGStab:  Solving for Uy, Initial residual = 0.00801858, Final residual = 1.28644e-09, No Iterations 3
DILUPBiCGStab:  Solving for O2, Initial residual = 0.0035961, Final residual = 4.95148e-09, No Iterations 3
DILUPBiCGStab:  Solving for H2O, Initial residual = 0.00359614, Final residual = 4.95145e-09, No Iterations 3
DILUPBiCGStab:  Solving for CH4, Initial residual = 0, Final residual = 0, No Iterations 0
DILUPBiCGStab:  Solving for CO2, Initial residual = 0.00359614, Final residual = 4.95145e-09, No Iterations 3
DILUPBiCGStab:  Solving for h, Initial residual = 0.00402568, Final residual = 5.02698e-09, No Iterations 3
min/max(T) = 299.886, 1044.98
GAMGPCG:  Solving for p_rgh, Initial residual = 0.0237713, Final residual = 2.0348e-07, No Iterations 5
diagonal:  Solving for rho, Initial residual = 0, Final residual = 0, No Iterations 0
time step continuity errors : sum local = 9.0966e-09, global = -5.84027e-10, cumulative = -1.21601e-07
GAMGPCG:  Solving for p_rgh, Initial residual = 0.00363663, Final residual = 6.65477e-07, No Iterations 4
diagonal:  Solving for rho, Initial residual = 0, Final residual = 0, No Iterations 0
time step continuity errors : sum local = 2.77786e-08, global = 4.8465e-09, cumulative = -1.16755e-07
DILUPBiCGStab:  Solving for omega, Initial residual = 0.000123264, Final residual = 2.22694e-09, No Iterations 2
DILUPBiCGStab:  Solving for k, Initial residual = 0.00500729, Final residual = 2.79946e-09, No Iterations 3

ExecutionTime = 4.79 s  ClockTime = 5 s

    Overall     = 0.00126705, 0.01
Time = 286

diagonal:  Solving for rho, Initial residual = 0, Final residual = 0, No Iterations 0

Execution time for mesh.update() = 0 s

DILUPBiCGStab:  Solving for Ux, Initial residual = 0.00527749, Final residual = 7.14642e-09, No Iterations 3
DILUPBiCGStab:  Solving for Uy, Initial residual = 0.00801205, Final residual = 1.33319e-09, No Iterations 3
DILUPBiCGStab:  Solving for O2, Initial residual = 0.00358893, Final residual = 4.22329e-09, No Iterations 3
DILUPBiCGStab:  Solving for H2O, Initial residual = 0.00358898, Final residual = 4.22328e-09, No Iterations 3
DILUPBiCGStab:  Solving for CH4, Initial residual = 0, Final residual = 0, No Iterations 0
DILUPBiCGStab:  Solving for CO2, Initial residual = 0.00358898, Final residual = 4.22328e-09, No Iterations 3
DILUPBiCGStab:  Solving for h, Initial residual = 0.00402429, Final residual = 4.54581e-09, No Iterations 3
min/max(T) = 299.888, 1044.98
GAMGPCG:  Solving for p_rgh, Initial residual = 0.0241151, Final residual = 1.88692e-07, No Iterations 5
diagonal:  Solving for rho, Initial residual = 0, Final residual = 0, No Iterations 0
time step continuity errors : sum local = 8.37362e-09, global = -8.02291e-10, cumulative = -1.17557e-07
GAMGPCG:  Solving for p_rgh, Initial residual = 0.00367965, Final residual = 6.88744e-07, No Iterations 4
diagonal:  Solving for rho, Initial residual = 0, Final residual = 0, No Iterations 0
time step continuity errors : sum local = 2.86514e-08, global = 5.14737e-09, cumulative = -1.1241e-07
DILUPBiCGStab:  Solving for omega, Initial residual = 0.000123194, Final residual = 2.22838e-09, No Iterations 2
DILUPBiCGStab:  Solving for k, Initial residual = 0.00500014, Final residual = 2.84226e-09, No Iterations 3

ExecutionTime = 4.91 s  ClockTime = 5 s

    Overall     = 0.00126907, 0.01
Time = 287

diagonal:  Solving for rho, Initial residual = 0, Final residual = 0, No Iterations 0

Execution time for mesh.update() = 0 s

DILUPBiCGStab:  Solving for Ux, Initial residual = 0.0052814, Final residual = 7.25268e-09, No Iterations 3
DILUPBiCGStab:  Solving for Uy, Initial residual = 0.00803275, Final residual = 9.95067e-09, No Iterations 3
DILUPBiCGStab:  Solving for O2, Initial residual = 0.00358082, Final residual = 4.18619e-09, No Iterations 3
DILUPBiCGStab:  Solving for H2O, Initial residual = 0.00358086, Final residual = 4.18617e-09, No Iterations 3
DILUPBiCGStab:  Solving for CH4, Initial residual = 0, Final residual = 0, No Iterations 0
DILUPBiCGStab:  Solving for CO2, Initial residual = 0.00358086, Final residual = 4.18617e-09, No Iterations 3
DILUPBiCGStab:  Solving for h, Initial residual = 0.00401841, Final residual = 4.54829e-09, No Iterations 3
min/max(T) = 299.896, 1044.98
GAMGPCG:  Solving for p_rgh, Initial residual = 0.0241696, Final residual = 1.79162e-07, No Iterations 5
diagonal:  Solving for rho, Initial residual = 0, Final residual = 0, No Iterations 0
time step continuity errors : sum local = 7.98902e-09, global = -7.49368e-10, cumulative = -1.13159e-07
GAMGPCG:  Solving for p_rgh, Initial residual = 0.00371754, Final residual = 5.76533e-07, No Iterations 4
diagonal:  Solving for rho, Initial residual = 0, Final residual = 0, No Iterations 0
time step continuity errors : sum local = 2.41702e-08, global = 3.96975e-09, cumulative = -1.09189e-07
DILUPBiCGStab:  Solving for omega, Initial residual = 0.000122308, Final residual = 2.23772e-09, No Iterations 2
DILUPBiCGStab:  Solving for k, Initial residual = 0.00498581, Final residual = 2.58625e-09, No Iterations 3

ExecutionTime = 5.03 s  ClockTime = 5 s

    Overall     = 0.00127773, 0.01
Time = 288

diagonal:  Solving for rho, Initial residual = 0, Final residual = 0, No Iterations 0

Execution time for mesh.update() = 0 s

DILUPBiCGStab:  Solving for Ux, Initial residual = 0.00526755, Final residual = 7.44147e-09, No Iterations 3
DILUPBiCGStab:  Solving for Uy, Initial residual = 0.00802573, Final residual = 1.24694e-09, No Iterations 3
DILUPBiCGStab:  Solving for O2, Initial residual = 0.00357239, Final residual = 4.13096e-09, No Iterations 3
DILUPBiCGStab:  Solving for H2O, Initial residual = 0.00357247, Final residual = 4.13094e-09, No Iterations 3
DILUPBiCGStab:  Solving for CH4, Initial residual = 0, Final residual = 0, No Iterations 0
DILUPBiCGStab:  Solving for CO2, Initial residual = 0.00357247, Final residual = 4.13094e-09, No Iterations 3
DILUPBiCGStab:  Solving for h, Initial residual = 0.00401319, Final residual = 4.40278e-09, No Iterations 3
min/max(T) = 299.9, 1044.98
GAMGPCG:  Solving for p_rgh, Initial residual = 0.024447, Final residual = 1.82241e-07, No Iterations 5
diagonal:  Solving for rho, Initial residual = 0, Final residual = 0, No Iterations 0
time step continuity errors : sum local = 8.11806e-09, global = -8.58901e-10, cumulative = -1.10048e-07
GAMGPCG:  Solving for p_rgh, Initial residual = 0.00378185, Final residual = 5.70326e-07, No Iterations 4
diagonal:  Solving for rho, Initial residual = 0, Final residual = 0, No Iterations 0
time step continuity errors : sum local = 2.36676e-08, global = 3.55713e-09, cumulative = -1.06491e-07
DILUPBiCGStab:  Solving for omega, Initial residual = 0.000121433, Final residual = 2.207e-09, No Iterations 2
DILUPBiCGStab:  Solving for k, Initial residual = 0.00498152, Final residual = 2.85446e-09, No Iterations 3

ExecutionTime = 5.14 s  ClockTime = 6 s

    Overall     = 0.00128014, 0.01
Time = 289

diagonal:  Solving for rho, Initial residual = 0, Final residual = 0, No Iterations 0

Execution time for mesh.update() = 0 s

DILUPBiCGStab:  Solving for Ux, Initial residual = 0.00526055, Final residual = 7.45624e-09, No Iterations 3
DILUPBiCGStab:  Solving for Uy, Initial residual = 0.00802208, Final residual = 1.1958e-09, No Iterations 3
DILUPBiCGStab:  Solving for O2, Initial residual = 0.00356495, Final residual = 4.56212e-09, No Iterations 3
DILUPBiCGStab:  Solving for H2O, Initial residual = 0.00356502, Final residual = 4.56211e-09, No Iterations 3
DILUPBiCGStab:  Solving for CH4, Initial residual = 0, Final residual = 0, No Iterations 0
DILUPBiCGStab:  Solving for CO2, Initial residual = 0.00356502, Final residual = 4.56211e-09, No Iterations 3
DILUPBiCGStab:  Solving for h, Initial residual = 0.004008, Final residual = 4.87129e-09, No Iterations 3
min/max(T) = 299.907, 1044.98
GAMGPCG:  Solving for p_rgh, Initial residual = 0.025233, Final residual = 1.80648e-07, No Iterations 5
diagonal:  Solving for rho, Initial residual = 0, Final residual = 0, No Iterations 0
time step continuity errors : sum local = 8.03637e-09, global = -7.52806e-10, cumulative = -1.07244e-07
GAMGPCG:  Solving for p_rgh, Initial residual = 0.00382017, Final residual = 5.15709e-07, No Iterations 4
diagonal:  Solving for rho, Initial residual = 0, Final residual = 0, No Iterations 0
time step continuity errors : sum local = 2.14404e-08, global = 3.36427e-09, cumulative = -1.0388e-07
DILUPBiCGStab:  Solving for omega, Initial residual = 0.000120042, Final residual = 2.25903e-09, No Iterations 2
DILUPBiCGStab:  Solving for k, Initial residual = 0.00496957, Final residual = 3.08541e-09, No Iterations 3

ExecutionTime = 5.26 s  ClockTime = 6 s

    Overall     = 0.00128848, 0.01
Time = 290

diagonal:  Solving for rho, Initial residual = 0, Final residual = 0, No Iterations 0

Execution time for mesh.update() = 0 s

DILUPBiCGStab:  Solving for Ux, Initial residual = 0.00526734, Final residual = 7.13883e-09, No Iterations 3
DILUPBiCGStab:  Solving for Uy, Initial residual = 0.00801987, Final residual = 1.16006e-09, No Iterations 3
GAMGPCG:  Solving for G, Initial residual = 0.188363, Final residual = 3.087e-05, No Iterations 5
DILUPBiCGStab:  Solving for O2, Initial residual = 0.00355341, Final residual = 4.09477e-09, No Iterations 3
DILUPBiCGStab:  Solving for H2O, Initial residual = 0.00355349, Final residual = 4.09475e-09, No Iterations 3
DILUPBiCGStab:  Solving for CH4, Initial residual = 0, Final residual = 0, No Iterations 0
DILUPBiCGStab:  Solving for CO2, Initial residual = 0.00355349, Final residual = 4.09476e-09, No Iterations 3
DILUPBiCGStab:  Solving for h, Initial residual = 0.00399993, Final residual = 4.46291e-09, No Iterations 3
min/max(T) = 299.91, 1044.98
GAMGPCG:  Solving for p_rgh, Initial residual = 0.0253491, Final residual = 1.47336e-07, No Iterations 5
diagonal:  Solving for rho, Initial residual = 0, Final residual = 0, No Iterations 0
time step continuity errors : sum local = 6.45067e-09, global = -5.02125e-10, cumulative = -1.04382e-07
GAMGPCG:  Solving for p_rgh, Initial residual = 0.0039141, Final residual = 4.4523e-07, No Iterations 4
diagonal:  Solving for rho, Initial residual = 0, Final residual = 0, No Iterations 0
time step continuity errors : sum local = 1.85083e-08, global = 2.62643e-09, cumulative = -1.01755e-07
DILUPBiCGStab:  Solving for omega, Initial residual = 0.000118683, Final residual = 2.36605e-09, No Iterations 2
DILUPBiCGStab:  Solving for k, Initial residual = 0.00495215, Final residual = 2.7313e-09, No Iterations 3

ExecutionTime = 5.51 s  ClockTime = 6 s

    Overall     = 0.00129035, 0.01
Time = 291

diagonal:  Solving for rho, Initial residual = 0, Final residual = 0, No Iterations 0

Execution time for mesh.update() = 0 s

DILUPBiCGStab:  Solving for Ux, Initial residual = 0.0052541, Final residual = 7.22632e-09, No Iterations 3
DILUPBiCGStab:  Solving for Uy, Initial residual = 0.00798099, Final residual = 1.23324e-09, No Iterations 3
DILUPBiCGStab:  Solving for O2, Initial residual = 0.00354145, Final residual = 4.038e-09, No Iterations 3
DILUPBiCGStab:  Solving for H2O, Initial residual = 0.00354151, Final residual = 4.03798e-09, No Iterations 3
DILUPBiCGStab:  Solving for CH4, Initial residual = 0, Final residual = 0, No Iterations 0
DILUPBiCGStab:  Solving for CO2, Initial residual = 0.00354151, Final residual = 4.03798e-09, No Iterations 3
DILUPBiCGStab:  Solving for h, Initial residual = 0.00398149, Final residual = 4.26612e-09, No Iterations 3
min/max(T) = 299.917, 1044.98
GAMGPCG:  Solving for p_rgh, Initial residual = 0.0255401, Final residual = 1.35565e-07, No Iterations 5
diagonal:  Solving for rho, Initial residual = 0, Final residual = 0, No Iterations 0
time step continuity errors : sum local = 5.77412e-09, global = -2.42315e-10, cumulative = -1.01998e-07
GAMGPCG:  Solving for p_rgh, Initial residual = 0.00390243, Final residual = 3.56638e-07, No Iterations 4
diagonal:  Solving for rho, Initial residual = 0, Final residual = 0, No Iterations 0
time step continuity errors : sum local = 1.47562e-08, global = 1.5719e-09, cumulative = -1.00426e-07
DILUPBiCGStab:  Solving for omega, Initial residual = 0.000117738, Final residual = 2.36395e-09, No Iterations 2
DILUPBiCGStab:  Solving for k, Initial residual = 0.00494363, Final residual = 2.5144e-09, No Iterations 3

ExecutionTime = 5.63 s  ClockTime = 6 s

    Overall     = 0.00129728, 0.01
Time = 292

diagonal:  Solving for rho, Initial residual = 0, Final residual = 0, No Iterations 0

Execution time for mesh.update() = 0 s

DILUPBiCGStab:  Solving for Ux, Initial residual = 0.00525543, Final residual = 7.34687e-09, No Iterations 3
DILUPBiCGStab:  Solving for Uy, Initial residual = 0.0079777, Final residual = 1.22704e-09, No Iterations 3
DILUPBiCGStab:  Solving for O2, Initial residual = 0.00352574, Final residual = 4.57585e-09, No Iterations 3
DILUPBiCGStab:  Solving for H2O, Initial residual = 0.0035258, Final residual = 4.57604e-09, No Iterations 3
DILUPBiCGStab:  Solving for CH4, Initial residual = 0, Final residual = 0, No Iterations 0
DILUPBiCGStab:  Solving for CO2, Initial residual = 0.0035258, Final residual = 4.57604e-09, No Iterations 3
DILUPBiCGStab:  Solving for h, Initial residual = 0.00396995, Final residual = 4.34022e-09, No Iterations 3
min/max(T) = 299.922, 1044.98
GAMGPCG:  Solving for p_rgh, Initial residual = 0.0256583, Final residual = 1.72417e-07, No Iterations 5
diagonal:  Solving for rho, Initial residual = 0, Final residual = 0, No Iterations 0
time step continuity errors : sum local = 7.49608e-09, global = -2.14804e-10, cumulative = -1.00641e-07
GAMGPCG:  Solving for p_rgh, Initial residual = 0.00401363, Final residual = 4.02541e-07, No Iterations 4
diagonal:  Solving for rho, Initial residual = 0, Final residual = 0, No Iterations 0
time step continuity errors : sum local = 1.66469e-08, global = 1.64671e-09, cumulative = -9.89938e-08
DILUPBiCGStab:  Solving for omega, Initial residual = 0.000117199, Final residual = 2.35385e-09, No Iterations 2
DILUPBiCGStab:  Solving for k, Initial residual = 0.00494214, Final residual = 2.53944e-09, No Iterations 3

ExecutionTime = 5.74 s  ClockTime = 6 s

    Overall     = 0.00129863, 0.01
Time = 293

[...]

Execution time for mesh.update() = 0 s

DILUPBiCGStab:  Solving for Ux, Initial residual = 0.00509177, Final residual = 6.72358e-09, No Iterations 3
DILUPBiCGStab:  Solving for Uy, Initial residual = 0.0047347, Final residual = 7.54808e-09, No Iterations 3
GAMGPCG:  Solving for G, Initial residual = 0.178442, Final residual = 2.92537e-05, No Iterations 6
DILUPBiCGStab:  Solving for O2, Initial residual = 0.00190719, Final residual = 3.29346e-09, No Iterations 3
DILUPBiCGStab:  Solving for H2O, Initial residual = 0.00190719, Final residual = 3.29347e-09, No Iterations 3
DILUPBiCGStab:  Solving for CH4, Initial residual = 0, Final residual = 0, No Iterations 0
DILUPBiCGStab:  Solving for CO2, Initial residual = 0.00190719, Final residual = 3.29347e-09, No Iterations 3
DILUPBiCGStab:  Solving for h, Initial residual = 0.00216658, Final residual = 3.21118e-09, No Iterations 3
min/max(T) = 300, 1044.98
GAMGPCG:  Solving for p_rgh, Initial residual = 0.0205384, Final residual = 8.63851e-07, No Iterations 4
diagonal:  Solving for rho, Initial residual = 0, Final residual = 0, No Iterations 0
time step continuity errors : sum local = 2.63281e-08, global = -5.57591e-09, cumulative = 9.80883e-07
GAMGPCG:  Solving for p_rgh, Initial residual = 0.00334472, Final residual = 3.24909e-07, No Iterations 4
diagonal:  Solving for rho, Initial residual = 0, Final residual = 0, No Iterations 0
time step continuity errors : sum local = 9.80462e-09, global = 6.24374e-10, cumulative = 9.81508e-07
DILUPBiCGStab:  Solving for omega, Initial residual = 8.7378e-05, Final residual = 1.95056e-09, No Iterations 2
DILUPBiCGStab:  Solving for k, Initial residual = 0.00410468, Final residual = 3.41441e-09, No Iterations 3

ExecutionTime = 289.86 s  ClockTime = 290 s

    Overall     = 0.00121338, 0.01
Time = 2491

diagonal:  Solving for rho, Initial residual = 0, Final residual = 0, No Iterations 0

Execution time for mesh.update() = 0 s

DILUPBiCGStab:  Solving for Ux, Initial residual = 0.00514447, Final residual = 7.01726e-09, No Iterations 3
DILUPBiCGStab:  Solving for Uy, Initial residual = 0.00478886, Final residual = 7.44691e-09, No Iterations 3
DILUPBiCGStab:  Solving for O2, Initial residual = 0.00191425, Final residual = 3.29541e-09, No Iterations 3
DILUPBiCGStab:  Solving for H2O, Initial residual = 0.00191426, Final residual = 3.29542e-09, No Iterations 3
DILUPBiCGStab:  Solving for CH4, Initial residual = 0, Final residual = 0, No Iterations 0
DILUPBiCGStab:  Solving for CO2, Initial residual = 0.00191426, Final residual = 3.29542e-09, No Iterations 3
DILUPBiCGStab:  Solving for h, Initial residual = 0.00217164, Final residual = 3.15964e-09, No Iterations 3
min/max(T) = 300, 1044.98
GAMGPCG:  Solving for p_rgh, Initial residual = 0.0205927, Final residual = 9.31838e-07, No Iterations 4
diagonal:  Solving for rho, Initial residual = 0, Final residual = 0, No Iterations 0
time step continuity errors : sum local = 2.81033e-08, global = -6.07896e-09, cumulative = 9.75429e-07
GAMGPCG:  Solving for p_rgh, Initial residual = 0.00347934, Final residual = 3.03487e-07, No Iterations 4
diagonal:  Solving for rho, Initial residual = 0, Final residual = 0, No Iterations 0
time step continuity errors : sum local = 9.22085e-09, global = 8.71667e-10, cumulative = 9.763e-07
DILUPBiCGStab:  Solving for omega, Initial residual = 8.68173e-05, Final residual = 1.94116e-09, No Iterations 2
DILUPBiCGStab:  Solving for k, Initial residual = 0.00409739, Final residual = 3.16215e-09, No Iterations 3

ExecutionTime = 289.97 s  ClockTime = 290 s

    Overall     = 0.00121689, 0.01
Time = 2492

diagonal:  Solving for rho, Initial residual = 0, Final residual = 0, No Iterations 0

Execution time for mesh.update() = 0 s

DILUPBiCGStab:  Solving for Ux, Initial residual = 0.00517327, Final residual = 1.3352e-09, No Iterations 3
DILUPBiCGStab:  Solving for Uy, Initial residual = 0.00479162, Final residual = 7.54024e-09, No Iterations 3
DILUPBiCGStab:  Solving for O2, Initial residual = 0.00190701, Final residual = 3.76596e-09, No Iterations 3
DILUPBiCGStab:  Solving for H2O, Initial residual = 0.00190701, Final residual = 3.76597e-09, No Iterations 3
DILUPBiCGStab:  Solving for CH4, Initial residual = 0, Final residual = 0, No Iterations 0
DILUPBiCGStab:  Solving for CO2, Initial residual = 0.00190701, Final residual = 3.76597e-09, No Iterations 3
DILUPBiCGStab:  Solving for h, Initial residual = 0.00216127, Final residual = 3.67724e-09, No Iterations 3
min/max(T) = 300, 1044.98
GAMGPCG:  Solving for p_rgh, Initial residual = 0.0203773, Final residual = 8.78445e-07, No Iterations 4
diagonal:  Solving for rho, Initial residual = 0, Final residual = 0, No Iterations 0
time step continuity errors : sum local = 2.63211e-08, global = -4.49507e-09, cumulative = 9.71805e-07
GAMGPCG:  Solving for p_rgh, Initial residual = 0.00338896, Final residual = 3.06826e-07, No Iterations 4
diagonal:  Solving for rho, Initial residual = 0, Final residual = 0, No Iterations 0
time step continuity errors : sum local = 9.37216e-09, global = 9.78348e-10, cumulative = 9.72784e-07
DILUPBiCGStab:  Solving for omega, Initial residual = 8.86772e-05, Final residual = 1.9076e-09, No Iterations 2
DILUPBiCGStab:  Solving for k, Initial residual = 0.00408644, Final residual = 3.12747e-09, No Iterations 3

ExecutionTime = 290.09 s  ClockTime = 291 s

    Overall     = 0.00121513, 0.01
Time = 2493

diagonal:  Solving for rho, Initial residual = 0, Final residual = 0, No Iterations 0

Execution time for mesh.update() = 0 s

DILUPBiCGStab:  Solving for Ux, Initial residual = 0.00516939, Final residual = 7.26142e-09, No Iterations 3
DILUPBiCGStab:  Solving for Uy, Initial residual = 0.00478629, Final residual = 6.7326e-09, No Iterations 3
DILUPBiCGStab:  Solving for O2, Initial residual = 0.0019096, Final residual = 4.09831e-09, No Iterations 3
DILUPBiCGStab:  Solving for H2O, Initial residual = 0.00190961, Final residual = 4.09832e-09, No Iterations 3
DILUPBiCGStab:  Solving for CH4, Initial residual = 0, Final residual = 0, No Iterations 0
DILUPBiCGStab:  Solving for CO2, Initial residual = 0.00190961, Final residual = 4.09832e-09, No Iterations 3
DILUPBiCGStab:  Solving for h, Initial residual = 0.00216419, Final residual = 4.06152e-09, No Iterations 3
min/max(T) = 300, 1044.98
GAMGPCG:  Solving for p_rgh, Initial residual = 0.0204499, Final residual = 9.4319e-07, No Iterations 4
diagonal:  Solving for rho, Initial residual = 0, Final residual = 0, No Iterations 0
time step continuity errors : sum local = 2.82934e-08, global = -5.74952e-09, cumulative = 9.67034e-07
GAMGPCG:  Solving for p_rgh, Initial residual = 0.00346347, Final residual = 3.08942e-07, No Iterations 4
diagonal:  Solving for rho, Initial residual = 0, Final residual = 0, No Iterations 0
time step continuity errors : sum local = 9.38297e-09, global = 1.18922e-09, cumulative = 9.68223e-07
DILUPBiCGStab:  Solving for omega, Initial residual = 8.798e-05, Final residual = 1.78908e-09, No Iterations 2
DILUPBiCGStab:  Solving for k, Initial residual = 0.00409282, Final residual = 1.1544e-09, No Iterations 3

ExecutionTime = 290.21 s  ClockTime = 291 s

    Overall     = 0.00121897, 0.01
Time = 2494

diagonal:  Solving for rho, Initial residual = 0, Final residual = 0, No Iterations 0

Execution time for mesh.update() = 0 s

DILUPBiCGStab:  Solving for Ux, Initial residual = 0.00518971, Final residual = 8.02408e-09, No Iterations 3
DILUPBiCGStab:  Solving for Uy, Initial residual = 0.00480214, Final residual = 6.47897e-09, No Iterations 3
DILUPBiCGStab:  Solving for O2, Initial residual = 0.00191582, Final residual = 3.98365e-09, No Iterations 3
DILUPBiCGStab:  Solving for H2O, Initial residual = 0.00191582, Final residual = 3.98365e-09, No Iterations 3
DILUPBiCGStab:  Solving for CH4, Initial residual = 0, Final residual = 0, No Iterations 0
DILUPBiCGStab:  Solving for CO2, Initial residual = 0.00191582, Final residual = 3.98365e-09, No Iterations 3
DILUPBiCGStab:  Solving for h, Initial residual = 0.00216673, Final residual = 4.01071e-09, No Iterations 3
min/max(T) = 300, 1044.98
GAMGPCG:  Solving for p_rgh, Initial residual = 0.0206365, Final residual = 8.47302e-07, No Iterations 4
diagonal:  Solving for rho, Initial residual = 0, Final residual = 0, No Iterations 0
time step continuity errors : sum local = 2.5863e-08, global = -5.40757e-09, cumulative = 9.62816e-07
GAMGPCG:  Solving for p_rgh, Initial residual = 0.00339047, Final residual = 2.9125e-07, No Iterations 4
diagonal:  Solving for rho, Initial residual = 0, Final residual = 0, No Iterations 0
time step continuity errors : sum local = 8.98739e-09, global = 1.09538e-09, cumulative = 9.63911e-07
DILUPBiCGStab:  Solving for omega, Initial residual = 8.9468e-05, Final residual = 1.8914e-09, No Iterations 2
DILUPBiCGStab:  Solving for k, Initial residual = 0.00406968, Final residual = 1.60902e-09, No Iterations 3

ExecutionTime = 290.33 s  ClockTime = 291 s

    Overall     = 0.00121682, 0.01
Time = 2495

diagonal:  Solving for rho, Initial residual = 0, Final residual = 0, No Iterations 0

Execution time for mesh.update() = 0 s

DILUPBiCGStab:  Solving for Ux, Initial residual = 0.00519287, Final residual = 8.59965e-09, No Iterations 3
DILUPBiCGStab:  Solving for Uy, Initial residual = 0.00480328, Final residual = 6.01679e-09, No Iterations 3
DILUPBiCGStab:  Solving for O2, Initial residual = 0.00191288, Final residual = 4.12517e-09, No Iterations 3
DILUPBiCGStab:  Solving for H2O, Initial residual = 0.00191289, Final residual = 4.12517e-09, No Iterations 3
DILUPBiCGStab:  Solving for CH4, Initial residual = 0, Final residual = 0, No Iterations 0
DILUPBiCGStab:  Solving for CO2, Initial residual = 0.00191289, Final residual = 4.12517e-09, No Iterations 3
DILUPBiCGStab:  Solving for h, Initial residual = 0.00216762, Final residual = 4.00804e-09, No Iterations 3
min/max(T) = 300, 1044.98
GAMGPCG:  Solving for p_rgh, Initial residual = 0.0209853, Final residual = 9.26979e-07, No Iterations 4
diagonal:  Solving for rho, Initial residual = 0, Final residual = 0, No Iterations 0
time step continuity errors : sum local = 2.80696e-08, global = -5.87674e-09, cumulative = 9.58034e-07
GAMGPCG:  Solving for p_rgh, Initial residual = 0.00351019, Final residual = 3.04126e-07, No Iterations 4
diagonal:  Solving for rho, Initial residual = 0, Final residual = 0, No Iterations 0
time step continuity errors : sum local = 9.26695e-09, global = 1.1857e-09, cumulative = 9.5922e-07
DILUPBiCGStab:  Solving for omega, Initial residual = 9.00325e-05, Final residual = 1.94527e-09, No Iterations 2
DILUPBiCGStab:  Solving for k, Initial residual = 0.00407018, Final residual = 1.00174e-09, No Iterations 3

ExecutionTime = 290.44 s  ClockTime = 291 s

    Overall     = 0.0012199, 0.01
Time = 2496

diagonal:  Solving for rho, Initial residual = 0, Final residual = 0, No Iterations 0

Execution time for mesh.update() = 0 s

DILUPBiCGStab:  Solving for Ux, Initial residual = 0.00523267, Final residual = 9.32761e-09, No Iterations 3
DILUPBiCGStab:  Solving for Uy, Initial residual = 0.00483826, Final residual = 6.21441e-09, No Iterations 3
DILUPBiCGStab:  Solving for O2, Initial residual = 0.00191997, Final residual = 4.64055e-09, No Iterations 3
DILUPBiCGStab:  Solving for H2O, Initial residual = 0.00191997, Final residual = 4.64055e-09, No Iterations 3
DILUPBiCGStab:  Solving for CH4, Initial residual = 0, Final residual = 0, No Iterations 0
DILUPBiCGStab:  Solving for CO2, Initial residual = 0.00191997, Final residual = 4.64055e-09, No Iterations 3
DILUPBiCGStab:  Solving for h, Initial residual = 0.00217404, Final residual = 4.78005e-09, No Iterations 3
min/max(T) = 300, 1044.98
GAMGPCG:  Solving for p_rgh, Initial residual = 0.0219004, Final residual = 7.7484e-07, No Iterations 4
diagonal:  Solving for rho, Initial residual = 0, Final residual = 0, No Iterations 0
time step continuity errors : sum local = 2.32275e-08, global = -4.48385e-09, cumulative = 9.54736e-07
GAMGPCG:  Solving for p_rgh, Initial residual = 0.00353022, Final residual = 3.11654e-07, No Iterations 4
diagonal:  Solving for rho, Initial residual = 0, Final residual = 0, No Iterations 0
time step continuity errors : sum local = 9.45929e-09, global = 9.08193e-10, cumulative = 9.55644e-07
DILUPBiCGStab:  Solving for omega, Initial residual = 9.19755e-05, Final residual = 2.23917e-09, No Iterations 2
DILUPBiCGStab:  Solving for k, Initial residual = 0.00404643, Final residual = 8.84314e-09, No Iterations 3

ExecutionTime = 290.56 s  ClockTime = 291 s

    Overall     = 0.00121873, 0.01
Time = 2497

diagonal:  Solving for rho, Initial residual = 0, Final residual = 0, No Iterations 0

Execution time for mesh.update() = 0 s

DILUPBiCGStab:  Solving for Ux, Initial residual = 0.00529691, Final residual = 9.46752e-09, No Iterations 3
DILUPBiCGStab:  Solving for Uy, Initial residual = 0.00488383, Final residual = 6.50018e-09, No Iterations 3
DILUPBiCGStab:  Solving for O2, Initial residual = 0.00191593, Final residual = 4.51547e-09, No Iterations 3
DILUPBiCGStab:  Solving for H2O, Initial residual = 0.00191593, Final residual = 4.51547e-09, No Iterations 3
DILUPBiCGStab:  Solving for CH4, Initial residual = 0, Final residual = 0, No Iterations 0
DILUPBiCGStab:  Solving for CO2, Initial residual = 0.00191593, Final residual = 4.51547e-09, No Iterations 3
DILUPBiCGStab:  Solving for h, Initial residual = 0.00216823, Final residual = 4.53266e-09, No Iterations 3
min/max(T) = 300, 1044.98
GAMGPCG:  Solving for p_rgh, Initial residual = 0.021358, Final residual = 8.94184e-07, No Iterations 4
diagonal:  Solving for rho, Initial residual = 0, Final residual = 0, No Iterations 0
time step continuity errors : sum local = 2.72247e-08, global = -5.02319e-09, cumulative = 9.50621e-07
GAMGPCG:  Solving for p_rgh, Initial residual = 0.00367959, Final residual = 2.84136e-07, No Iterations 4
diagonal:  Solving for rho, Initial residual = 0, Final residual = 0, No Iterations 0
time step continuity errors : sum local = 8.69163e-09, global = 1.22565e-09, cumulative = 9.51847e-07
DILUPBiCGStab:  Solving for omega, Initial residual = 9.11223e-05, Final residual = 2.33482e-09, No Iterations 2
DILUPBiCGStab:  Solving for k, Initial residual = 0.00406558, Final residual = 5.09694e-09, No Iterations 3

ExecutionTime = 290.67 s  ClockTime = 291 s

    Overall     = 0.00122172, 0.01
Time = 2498

diagonal:  Solving for rho, Initial residual = 0, Final residual = 0, No Iterations 0

Execution time for mesh.update() = 0 s

DILUPBiCGStab:  Solving for Ux, Initial residual = 0.00529386, Final residual = 9.7614e-09, No Iterations 3
DILUPBiCGStab:  Solving for Uy, Initial residual = 0.00488815, Final residual = 6.87689e-09, No Iterations 3
DILUPBiCGStab:  Solving for O2, Initial residual = 0.00192841, Final residual = 4.70482e-09, No Iterations 3
DILUPBiCGStab:  Solving for H2O, Initial residual = 0.00192841, Final residual = 4.70482e-09, No Iterations 3
DILUPBiCGStab:  Solving for CH4, Initial residual = 0, Final residual = 0, No Iterations 0
DILUPBiCGStab:  Solving for CO2, Initial residual = 0.00192841, Final residual = 4.70482e-09, No Iterations 3
DILUPBiCGStab:  Solving for h, Initial residual = 0.0021829, Final residual = 4.47553e-09, No Iterations 3
min/max(T) = 300, 1044.98
GAMGPCG:  Solving for p_rgh, Initial residual = 0.0216241, Final residual = 2.11813e-07, No Iterations 5
diagonal:  Solving for rho, Initial residual = 0, Final residual = 0, No Iterations 0
time step continuity errors : sum local = 6.3595e-09, global = -1.17694e-09, cumulative = 9.5067e-07
GAMGPCG:  Solving for p_rgh, Initial residual = 0.00353659, Final residual = 2.9511e-07, No Iterations 4
diagonal:  Solving for rho, Initial residual = 0, Final residual = 0, No Iterations 0
time step continuity errors : sum local = 9.11561e-09, global = 1.1662e-09, cumulative = 9.51836e-07
DILUPBiCGStab:  Solving for omega, Initial residual = 9.1157e-05, Final residual = 2.37585e-09, No Iterations 2
DILUPBiCGStab:  Solving for k, Initial residual = 0.00401373, Final residual = 5.19231e-09, No Iterations 3

ExecutionTime = 290.79 s  ClockTime = 291 s

    Overall     = 0.00121998, 0.01
Time = 2499

diagonal:  Solving for rho, Initial residual = 0, Final residual = 0, No Iterations 0

Execution time for mesh.update() = 0 s

DILUPBiCGStab:  Solving for Ux, Initial residual = 0.00528737, Final residual = 1.11459e-09, No Iterations 3
DILUPBiCGStab:  Solving for Uy, Initial residual = 0.00486408, Final residual = 7.68332e-09, No Iterations 3
DILUPBiCGStab:  Solving for O2, Initial residual = 0.00192407, Final residual = 4.11366e-09, No Iterations 3
DILUPBiCGStab:  Solving for H2O, Initial residual = 0.00192407, Final residual = 4.11366e-09, No Iterations 3
DILUPBiCGStab:  Solving for CH4, Initial residual = 0, Final residual = 0, No Iterations 0
DILUPBiCGStab:  Solving for CO2, Initial residual = 0.00192407, Final residual = 4.11366e-09, No Iterations 3
DILUPBiCGStab:  Solving for h, Initial residual = 0.00217691, Final residual = 4.16881e-09, No Iterations 3
min/max(T) = 300, 1044.98
GAMGPCG:  Solving for p_rgh, Initial residual = 0.0217757, Final residual = 6.45571e-07, No Iterations 4
diagonal:  Solving for rho, Initial residual = 0, Final residual = 0, No Iterations 0
time step continuity errors : sum local = 1.92072e-08, global = -1.26154e-09, cumulative = 9.50575e-07
GAMGPCG:  Solving for p_rgh, Initial residual = 0.00370342, Final residual = 2.32859e-07, No Iterations 4
diagonal:  Solving for rho, Initial residual = 0, Final residual = 0, No Iterations 0
time step continuity errors : sum local = 7.08933e-09, global = 6.70027e-10, cumulative = 9.51245e-07
DILUPBiCGStab:  Solving for omega, Initial residual = 9.47236e-05, Final residual = 2.47177e-09, No Iterations 2
DILUPBiCGStab:  Solving for k, Initial residual = 0.00407896, Final residual = 5.29597e-09, No Iterations 3

ExecutionTime = 290.91 s  ClockTime = 291 s

    Overall     = 0.00122567, 0.01
Time = 2500

diagonal:  Solving for rho, Initial residual = 0, Final residual = 0, No Iterations 0

Execution time for mesh.update() = 0 s

DILUPBiCGStab:  Solving for Ux, Initial residual = 0.00529945, Final residual = 1.02233e-09, No Iterations 3
DILUPBiCGStab:  Solving for Uy, Initial residual = 0.00489252, Final residual = 7.7697e-09, No Iterations 3
GAMGPCG:  Solving for G, Initial residual = 0.209124, Final residual = 9.44805e-05, No Iterations 5
DILUPBiCGStab:  Solving for O2, Initial residual = 0.00195258, Final residual = 4.16702e-09, No Iterations 3
DILUPBiCGStab:  Solving for H2O, Initial residual = 0.00195259, Final residual = 4.16702e-09, No Iterations 3
DILUPBiCGStab:  Solving for CH4, Initial residual = 0, Final residual = 0, No Iterations 0
DILUPBiCGStab:  Solving for CO2, Initial residual = 0.00195259, Final residual = 4.16702e-09, No Iterations 3
DILUPBiCGStab:  Solving for h, Initial residual = 0.00221808, Final residual = 4.11166e-09, No Iterations 3
min/max(T) = 300, 1044.98
GAMGPCG:  Solving for p_rgh, Initial residual = 0.0220124, Final residual = 2.18236e-07, No Iterations 5
diagonal:  Solving for rho, Initial residual = 0, Final residual = 0, No Iterations 0
time step continuity errors : sum local = 6.55189e-09, global = -1.00774e-09, cumulative = 9.50237e-07
GAMGPCG:  Solving for p_rgh, Initial residual = 0.00346609, Final residual = 3.00261e-07, No Iterations 4
diagonal:  Solving for rho, Initial residual = 0, Final residual = 0, No Iterations 0
time step continuity errors : sum local = 9.28069e-09, global = 9.65192e-10, cumulative = 9.51202e-07
DILUPBiCGStab:  Solving for omega, Initial residual = 9.17498e-05, Final residual = 2.22672e-09, No Iterations 2
DILUPBiCGStab:  Solving for k, Initial residual = 0.00402754, Final residual = 4.95786e-09, No Iterations 3

ExecutionTime = 291.17 s  ClockTime = 292 s


Patch Mean : 301.647
Patch Variance : 0.00280004
Patch Gradient : 0.115281
End
