/*---------------------------------------------------------------------------*\
  =========                 |
  \\      /  F ield         | OpenFOAM: The Open Source CFD Toolbox
   \\    /   O peration     | Website:  https://openfoam.org
    \\  /    A nd           | Version:  dev
     \\/     M anipulation  |
\*---------------------------------------------------------------------------*/
Build  : dev-cabe48fb62c1
Exec   : fireDyMFoam
Date   : Apr 15 2019
Time   : 11:46:58
Host   : "Host"
PID    : 30042
I/O    : uncollated
Case   : /home/tesla/OpenFOAM/tesla-dev/run/rollerOpt_COBYLA_NEW
nProcs : 1
sigFpe : Enabling floating point exception trapping (FOAM_SIGFPE).
fileModificationChecking : Monitoring run-time modified files using timeStampMaster (fileModificationSkew 10)
allowSystemOperations : Allowing user-supplied system call operations

// * * * * * * * * * * * * * * * * * * * * * * * * * * * * * * * * * * * * * //
Create time

--> FOAM Warning : 
    From function void* Foam::dlOpen(const Foam::fileName&, bool)
    in file POSIX.C at line 1268
    dlopen error : libgroovyBC.so: cannot open shared object file: No such file or directory
--> FOAM Warning : 
    From function bool Foam::dlLibraryTable::open(const Foam::fileName&, bool)
    in file db/dynamicLibrary/dlLibraryTable/dlLibraryTable.C at line 105
    could not load "libgroovyBC.so"
Create mesh for time = 250

Selecting dynamicFvMesh dynamicRefineFvMesh
Detected 520 cells that are protected from refinement. Writing these to cellSet protectedCells.

PIMPLE: No convergence criteria found


PIMPLE: Operating solver in PISO mode


Initializing Solver

Selecting thermodynamics package 
{
    type            hePsiThermo;
    mixture         reactingMixture;
    transport       sutherland;
    thermo          janaf;
    energy          sensibleEnthalpy;
    equationOfState perfectGas;
    specie          specie;
}

Selecting chemistryReader foamChemistryReader
    elements not defined in "/home/tesla/OpenFOAM/tesla-dev/run/rollerOpt_COBYLA_NEW/constant/reactions"
Reading/calculating face flux field phi

No MRF models present

Selecting turbulence model type RAS
Selecting RAS turbulence model kOmegaSST
Selecting patchDistMethod meshWave
kOmegaSSTCoeffs
{
    delta           cubeRootVol;
    cubeRootVolCoeffs
    {
        deltaCoeff      1;
    }
    alphaK1         0.85;
    alphaK2         1;
    alphaOmega1     0.5;
    alphaOmega2     0.856;
    gamma1          0.555556;
    gamma2          0.44;
    beta1           0.075;
    beta2           0.0828;
    betaStar        0.09;
    a1              0.31;
    b1              1;
    c1              10;
    F3              false;
}

Selecting combustion model none<psiThermoCombustion>
--> FOAM Warning : 
    From function static Foam::autoPtr<T> Foam::combustionModel::New(typename CombustionModel::reactionThermo&, const Foam::compressibleTurbulenceModel&, const Foam::word&) [with CombustionModel = Foam::CombustionModel<Foam::psiReactionThermo>; typename CombustionModel::reactionThermo = Foam::psiReactionThermo]
    in file /home/tesla/OpenFOAM/OpenFOAM-dev/src/combustionModels/lnInclude/combustionModelTemplates.C at line 69
    Template parameters are no longer required when selecting a combustionModel. This information is now obtained directly from the thermodynamics. Actually selecting combustion model none.

Reading g

Reading hRef
Calculating field g.h


Reading pRef
Selecting radiationModel P1
Selecting absorptionEmissionModel greyMeanAbsorptionEmission
Selecting scatterModel none
Selecting sootModel none
Creating finite volume options from "system/fvOptions"

No finite volume options present
Using LTS

Starting time loop

Using dynamicCode for functionObject patchCalcs at line 64 in "/home/tesla/OpenFOAM/tesla-dev/run/rollerOpt_COBYLA_NEW/system/controlDict.functions.patchCalcs"
    Overall     = 0.00129658, 0.01
Time = 251

diagonal:  Solving for rho, Initial residual = 0, Final residual = 0, No Iterations 0

Execution time for mesh.update() = 0 s

DILUPBiCGStab:  Solving for Ux, Initial residual = 0.00819578, Final residual = 1.04037e-09, No Iterations 3
DILUPBiCGStab:  Solving for Uy, Initial residual = 0.013611, Final residual = 1.47491e-09, No Iterations 3
GAMGPCG:  Solving for G, Initial residual = 0.0207775, Final residual = 5.86234e-05, No Iterations 3
DILUPBiCGStab:  Solving for O2, Initial residual = 0.000994838, Final residual = 8.72603e-09, No Iterations 2
DILUPBiCGStab:  Solving for H2O, Initial residual = 0.00099523, Final residual = 8.72699e-09, No Iterations 2
DILUPBiCGStab:  Solving for CH4, Initial residual = 0, Final residual = 0, No Iterations 0
DILUPBiCGStab:  Solving for CO2, Initial residual = 0.000995235, Final residual = 8.727e-09, No Iterations 2
DILUPBiCGStab:  Solving for h, Initial residual = 0.00121214, Final residual = 7.51077e-10, No Iterations 3
min/max(T) = 299.298, 1044.99
GAMGPCG:  Solving for p_rgh, Initial residual = 0.0150872, Final residual = 5.36047e-07, No Iterations 4
diagonal:  Solving for rho, Initial residual = 0, Final residual = 0, No Iterations 0
time step continuity errors : sum local = 2.46366e-06, global = -1.66531e-07, cumulative = -1.66531e-07
GAMGPCG:  Solving for p_rgh, Initial residual = 0.00271431, Final residual = 2.07734e-07, No Iterations 4
diagonal:  Solving for rho, Initial residual = 0, Final residual = 0, No Iterations 0
time step continuity errors : sum local = 2.46001e-06, global = -1.65248e-07, cumulative = -3.31779e-07
DILUPBiCGStab:  Solving for omega, Initial residual = 7.77979e-05, Final residual = 9.48817e-10, No Iterations 2
DILUPBiCGStab:  Solving for k, Initial residual = 0.00220746, Final residual = 1.80481e-09, No Iterations 3

ExecutionTime = 0.37 s  ClockTime = 1 s

    Overall     = 0.00129265, 0.01
Time = 252

diagonal:  Solving for rho, Initial residual = 0, Final residual = 0, No Iterations 0

Execution time for mesh.update() = 0 s

DILUPBiCGStab:  Solving for Ux, Initial residual = 0.00829547, Final residual = 9.45495e-10, No Iterations 3
DILUPBiCGStab:  Solving for Uy, Initial residual = 0.0134233, Final residual = 1.41634e-09, No Iterations 3
DILUPBiCGStab:  Solving for O2, Initial residual = 0.00100007, Final residual = 9.22387e-09, No Iterations 2
DILUPBiCGStab:  Solving for H2O, Initial residual = 0.0010006, Final residual = 9.22404e-09, No Iterations 2
DILUPBiCGStab:  Solving for CH4, Initial residual = 0, Final residual = 0, No Iterations 0
DILUPBiCGStab:  Solving for CO2, Initial residual = 0.0010006, Final residual = 9.22405e-09, No Iterations 2
DILUPBiCGStab:  Solving for h, Initial residual = 0.00121689, Final residual = 7.39051e-10, No Iterations 3
min/max(T) = 299.278, 1044.99
GAMGPCG:  Solving for p_rgh, Initial residual = 0.0150138, Final residual = 6.3499e-07, No Iterations 4
diagonal:  Solving for rho, Initial residual = 0, Final residual = 0, No Iterations 0
time step continuity errors : sum local = 3.62592e-08, global = -6.57398e-09, cumulative = -3.38353e-07
GAMGPCG:  Solving for p_rgh, Initial residual = 0.00253365, Final residual = 2.17326e-07, No Iterations 4
diagonal:  Solving for rho, Initial residual = 0, Final residual = 0, No Iterations 0
time step continuity errors : sum local = 1.24495e-08, global = 1.2498e-09, cumulative = -3.37103e-07
DILUPBiCGStab:  Solving for omega, Initial residual = 7.80013e-05, Final residual = 1.01288e-09, No Iterations 2
DILUPBiCGStab:  Solving for k, Initial residual = 0.00221221, Final residual = 1.80535e-09, No Iterations 3

ExecutionTime = 0.48 s  ClockTime = 1 s

    Overall     = 0.00129443, 0.01
Time = 253

diagonal:  Solving for rho, Initial residual = 0, Final residual = 0, No Iterations 0

Execution time for mesh.update() = 0 s

DILUPBiCGStab:  Solving for Ux, Initial residual = 0.00842971, Final residual = 9.75448e-10, No Iterations 3
DILUPBiCGStab:  Solving for Uy, Initial residual = 0.0134203, Final residual = 1.43389e-09, No Iterations 3
DILUPBiCGStab:  Solving for O2, Initial residual = 0.000992982, Final residual = 9.52346e-09, No Iterations 2
DILUPBiCGStab:  Solving for H2O, Initial residual = 0.000993413, Final residual = 9.52378e-09, No Iterations 2
DILUPBiCGStab:  Solving for CH4, Initial residual = 0, Final residual = 0, No Iterations 0
DILUPBiCGStab:  Solving for CO2, Initial residual = 0.000993413, Final residual = 9.52376e-09, No Iterations 2
DILUPBiCGStab:  Solving for h, Initial residual = 0.00120733, Final residual = 6.86801e-10, No Iterations 3
min/max(T) = 299.304, 1044.99
GAMGPCG:  Solving for p_rgh, Initial residual = 0.01497, Final residual = 4.8717e-07, No Iterations 4
diagonal:  Solving for rho, Initial residual = 0, Final residual = 0, No Iterations 0
time step continuity errors : sum local = 2.74172e-08, global = 2.81421e-09, cumulative = -3.34289e-07
GAMGPCG:  Solving for p_rgh, Initial residual = 0.00265327, Final residual = 9.69998e-07, No Iterations 3
diagonal:  Solving for rho, Initial residual = 0, Final residual = 0, No Iterations 0
time step continuity errors : sum local = 5.50047e-08, global = 8.49167e-09, cumulative = -3.25797e-07
DILUPBiCGStab:  Solving for omega, Initial residual = 7.77392e-05, Final residual = 1.03495e-09, No Iterations 2
DILUPBiCGStab:  Solving for k, Initial residual = 0.0022176, Final residual = 1.98537e-09, No Iterations 3

ExecutionTime = 0.59 s  ClockTime = 1 s

    Overall     = 0.00129044, 0.01
Time = 254

diagonal:  Solving for rho, Initial residual = 0, Final residual = 0, No Iterations 0

Execution time for mesh.update() = 0 s

DILUPBiCGStab:  Solving for Ux, Initial residual = 0.00848974, Final residual = 9.83122e-10, No Iterations 3
DILUPBiCGStab:  Solving for Uy, Initial residual = 0.0133282, Final residual = 1.54685e-09, No Iterations 3
DILUPBiCGStab:  Solving for O2, Initial residual = 0.000988921, Final residual = 7.89964e-10, No Iterations 3
DILUPBiCGStab:  Solving for H2O, Initial residual = 0.000989455, Final residual = 7.90008e-10, No Iterations 3
DILUPBiCGStab:  Solving for CH4, Initial residual = 0, Final residual = 0, No Iterations 0
DILUPBiCGStab:  Solving for CO2, Initial residual = 0.000989455, Final residual = 7.90006e-10, No Iterations 3
DILUPBiCGStab:  Solving for h, Initial residual = 0.00120073, Final residual = 7.61588e-10, No Iterations 3
min/max(T) = 299.301, 1044.99
GAMGPCG:  Solving for p_rgh, Initial residual = 0.014524, Final residual = 4.66926e-07, No Iterations 4
diagonal:  Solving for rho, Initial residual = 0, Final residual = 0, No Iterations 0
time step continuity errors : sum local = 2.65001e-08, global = 3.35078e-09, cumulative = -3.22446e-07
GAMGPCG:  Solving for p_rgh, Initial residual = 0.00262112, Final residual = 1.90153e-07, No Iterations 4
diagonal:  Solving for rho, Initial residual = 0, Final residual = 0, No Iterations 0
time step continuity errors : sum local = 1.10126e-08, global = 1.0544e-09, cumulative = -3.21392e-07
DILUPBiCGStab:  Solving for omega, Initial residual = 7.89275e-05, Final residual = 1.01636e-09, No Iterations 2
DILUPBiCGStab:  Solving for k, Initial residual = 0.00222137, Final residual = 2.14259e-09, No Iterations 3

ExecutionTime = 0.7 s  ClockTime = 1 s

    Overall     = 0.00129219, 0.01
Time = 255

diagonal:  Solving for rho, Initial residual = 0, Final residual = 0, No Iterations 0

Execution time for mesh.update() = 0 s

DILUPBiCGStab:  Solving for Ux, Initial residual = 0.00852524, Final residual = 1.06504e-09, No Iterations 3
DILUPBiCGStab:  Solving for Uy, Initial residual = 0.0131944, Final residual = 1.68243e-09, No Iterations 3
DILUPBiCGStab:  Solving for O2, Initial residual = 0.000989837, Final residual = 7.41797e-10, No Iterations 3
DILUPBiCGStab:  Solving for H2O, Initial residual = 0.000990232, Final residual = 7.41759e-10, No Iterations 3
DILUPBiCGStab:  Solving for CH4, Initial residual = 0, Final residual = 0, No Iterations 0
DILUPBiCGStab:  Solving for CO2, Initial residual = 0.000990232, Final residual = 7.41755e-10, No Iterations 3
DILUPBiCGStab:  Solving for h, Initial residual = 0.00120166, Final residual = 7.88456e-10, No Iterations 3
min/max(T) = 299.331, 1044.99
GAMGPCG:  Solving for p_rgh, Initial residual = 0.0146113, Final residual = 6.17948e-07, No Iterations 4
diagonal:  Solving for rho, Initial residual = 0, Final residual = 0, No Iterations 0
time step continuity errors : sum local = 3.51249e-08, global = 3.41755e-09, cumulative = -3.17974e-07
GAMGPCG:  Solving for p_rgh, Initial residual = 0.00255537, Final residual = 2.00846e-07, No Iterations 4
diagonal:  Solving for rho, Initial residual = 0, Final residual = 0, No Iterations 0
time step continuity errors : sum local = 1.14353e-08, global = 1.26622e-09, cumulative = -3.16708e-07
DILUPBiCGStab:  Solving for omega, Initial residual = 7.94059e-05, Final residual = 9.73647e-10, No Iterations 2
DILUPBiCGStab:  Solving for k, Initial residual = 0.00222143, Final residual = 2.02028e-09, No Iterations 3

ExecutionTime = 0.81 s  ClockTime = 1 s

    Overall     = 0.00128696, 0.01
Time = 256

diagonal:  Solving for rho, Initial residual = 0, Final residual = 0, No Iterations 0

Execution time for mesh.update() = 0 s

DILUPBiCGStab:  Solving for Ux, Initial residual = 0.00862229, Final residual = 1.14386e-09, No Iterations 3
DILUPBiCGStab:  Solving for Uy, Initial residual = 0.0131534, Final residual = 1.89335e-09, No Iterations 3
DILUPBiCGStab:  Solving for O2, Initial residual = 0.000981849, Final residual = 9.42867e-10, No Iterations 3
DILUPBiCGStab:  Solving for H2O, Initial residual = 0.000982364, Final residual = 9.4291e-10, No Iterations 3
DILUPBiCGStab:  Solving for CH4, Initial residual = 0, Final residual = 0, No Iterations 0
DILUPBiCGStab:  Solving for CO2, Initial residual = 0.000982363, Final residual = 9.42904e-10, No Iterations 3
DILUPBiCGStab:  Solving for h, Initial residual = 0.00118802, Final residual = 9.02658e-10, No Iterations 3
min/max(T) = 299.319, 1044.99
GAMGPCG:  Solving for p_rgh, Initial residual = 0.0148764, Final residual = 6.58113e-07, No Iterations 4
diagonal:  Solving for rho, Initial residual = 0, Final residual = 0, No Iterations 0
time step continuity errors : sum local = 3.74452e-08, global = 4.98705e-09, cumulative = -3.11721e-07
GAMGPCG:  Solving for p_rgh, Initial residual = 0.00259309, Final residual = 2.03742e-07, No Iterations 4
diagonal:  Solving for rho, Initial residual = 0, Final residual = 0, No Iterations 0
time step continuity errors : sum local = 1.15919e-08, global = 1.50634e-09, cumulative = -3.10215e-07
DILUPBiCGStab:  Solving for omega, Initial residual = 8.03159e-05, Final residual = 9.71681e-10, No Iterations 2
DILUPBiCGStab:  Solving for k, Initial residual = 0.00222112, Final residual = 1.94516e-09, No Iterations 3

ExecutionTime = 0.93 s  ClockTime = 1 s

    Overall     = 0.00128744, 0.01
Time = 257

diagonal:  Solving for rho, Initial residual = 0, Final residual = 0, No Iterations 0

Execution time for mesh.update() = 0 s

DILUPBiCGStab:  Solving for Ux, Initial residual = 0.00877786, Final residual = 1.28919e-09, No Iterations 3
DILUPBiCGStab:  Solving for Uy, Initial residual = 0.0131015, Final residual = 2.01075e-09, No Iterations 3
DILUPBiCGStab:  Solving for O2, Initial residual = 0.000984146, Final residual = 1.01035e-09, No Iterations 3
DILUPBiCGStab:  Solving for H2O, Initial residual = 0.000984534, Final residual = 1.01033e-09, No Iterations 3
DILUPBiCGStab:  Solving for CH4, Initial residual = 0, Final residual = 0, No Iterations 0
DILUPBiCGStab:  Solving for CO2, Initial residual = 0.000984533, Final residual = 1.01032e-09, No Iterations 3
DILUPBiCGStab:  Solving for h, Initial residual = 0.00118862, Final residual = 9.88184e-10, No Iterations 3
min/max(T) = 299.349, 1044.99
GAMGPCG:  Solving for p_rgh, Initial residual = 0.0146339, Final residual = 7.50081e-07, No Iterations 4
diagonal:  Solving for rho, Initial residual = 0, Final residual = 0, No Iterations 0
time step continuity errors : sum local = 4.27283e-08, global = 5.16025e-09, cumulative = -3.05055e-07
GAMGPCG:  Solving for p_rgh, Initial residual = 0.00259985, Final residual = 1.97178e-07, No Iterations 4
diagonal:  Solving for rho, Initial residual = 0, Final residual = 0, No Iterations 0
time step continuity errors : sum local = 1.1226e-08, global = 1.49471e-09, cumulative = -3.0356e-07
DILUPBiCGStab:  Solving for omega, Initial residual = 7.95979e-05, Final residual = 1.0109e-09, No Iterations 2
DILUPBiCGStab:  Solving for k, Initial residual = 0.0022234, Final residual = 2.11614e-09, No Iterations 3

ExecutionTime = 1.04 s  ClockTime = 1 s

    Overall     = 0.00128251, 0.01
Time = 258

diagonal:  Solving for rho, Initial residual = 0, Final residual = 0, No Iterations 0

Execution time for mesh.update() = 0 s

DILUPBiCGStab:  Solving for Ux, Initial residual = 0.00886947, Final residual = 1.35306e-09, No Iterations 3
DILUPBiCGStab:  Solving for Uy, Initial residual = 0.01295, Final residual = 2.04973e-09, No Iterations 3
DILUPBiCGStab:  Solving for O2, Initial residual = 0.000984304, Final residual = 8.56219e-10, No Iterations 3
DILUPBiCGStab:  Solving for H2O, Initial residual = 0.000984807, Final residual = 8.56211e-10, No Iterations 3
DILUPBiCGStab:  Solving for CH4, Initial residual = 0, Final residual = 0, No Iterations 0
DILUPBiCGStab:  Solving for CO2, Initial residual = 0.000984807, Final residual = 8.5621e-10, No Iterations 3
DILUPBiCGStab:  Solving for h, Initial residual = 0.00118551, Final residual = 8.68744e-10, No Iterations 3
min/max(T) = 299.354, 1044.99
GAMGPCG:  Solving for p_rgh, Initial residual = 0.0147932, Final residual = 7.59757e-07, No Iterations 4
diagonal:  Solving for rho, Initial residual = 0, Final residual = 0, No Iterations 0
time step continuity errors : sum local = 4.34719e-08, global = 7.33602e-09, cumulative = -2.96224e-07
GAMGPCG:  Solving for p_rgh, Initial residual = 0.00260754, Final residual = 1.87429e-07, No Iterations 4
diagonal:  Solving for rho, Initial residual = 0, Final residual = 0, No Iterations 0
time step continuity errors : sum local = 1.07057e-08, global = 1.48589e-09, cumulative = -2.94738e-07
DILUPBiCGStab:  Solving for omega, Initial residual = 8.15763e-05, Final residual = 1.04066e-09, No Iterations 2
DILUPBiCGStab:  Solving for k, Initial residual = 0.00222481, Final residual = 2.15869e-09, No Iterations 3

ExecutionTime = 1.15 s  ClockTime = 2 s

    Overall     = 0.00128361, 0.01
Time = 259

diagonal:  Solving for rho, Initial residual = 0, Final residual = 0, No Iterations 0

Execution time for mesh.update() = 0 s

DILUPBiCGStab:  Solving for Ux, Initial residual = 0.00890603, Final residual = 1.35815e-09, No Iterations 3
DILUPBiCGStab:  Solving for Uy, Initial residual = 0.0129168, Final residual = 1.99506e-09, No Iterations 3
DILUPBiCGStab:  Solving for O2, Initial residual = 0.000988579, Final residual = 1.8886e-09, No Iterations 3
DILUPBiCGStab:  Solving for H2O, Initial residual = 0.0009889, Final residual = 1.88173e-09, No Iterations 3
DILUPBiCGStab:  Solving for CH4, Initial residual = 0, Final residual = 0, No Iterations 0
DILUPBiCGStab:  Solving for CO2, Initial residual = 0.000988899, Final residual = 1.8819e-09, No Iterations 3
DILUPBiCGStab:  Solving for h, Initial residual = 0.00119045, Final residual = 9.42951e-10, No Iterations 3
min/max(T) = 299.399, 1044.99
GAMGPCG:  Solving for p_rgh, Initial residual = 0.0150148, Final residual = 6.83078e-07, No Iterations 4
diagonal:  Solving for rho, Initial residual = 0, Final residual = 0, No Iterations 0
time step continuity errors : sum local = 3.99116e-08, global = 5.34681e-09, cumulative = -2.89391e-07
GAMGPCG:  Solving for p_rgh, Initial residual = 0.00253975, Final residual = 9.41442e-07, No Iterations 3
diagonal:  Solving for rho, Initial residual = 0, Final residual = 0, No Iterations 0
time step continuity errors : sum local = 5.43142e-08, global = 4.94697e-09, cumulative = -2.84444e-07
DILUPBiCGStab:  Solving for omega, Initial residual = 8.0288e-05, Final residual = 1.01905e-09, No Iterations 2
DILUPBiCGStab:  Solving for k, Initial residual = 0.00222387, Final residual = 2.33766e-09, No Iterations 3

ExecutionTime = 1.26 s  ClockTime = 2 s

    Overall     = 0.00127889, 0.01
Time = 260

diagonal:  Solving for rho, Initial residual = 0, Final residual = 0, No Iterations 0

Execution time for mesh.update() = 0 s

DILUPBiCGStab:  Solving for Ux, Initial residual = 0.00913384, Final residual = 1.41442e-09, No Iterations 3
DILUPBiCGStab:  Solving for Uy, Initial residual = 0.012841, Final residual = 2.10999e-09, No Iterations 3
GAMGPCG:  Solving for G, Initial residual = 0.0688954, Final residual = 3.76174e-05, No Iterations 5
DILUPBiCGStab:  Solving for O2, Initial residual = 0.000979133, Final residual = 3.92685e-09, No Iterations 3
DILUPBiCGStab:  Solving for H2O, Initial residual = 0.000979593, Final residual = 3.92997e-09, No Iterations 3
DILUPBiCGStab:  Solving for CH4, Initial residual = 0, Final residual = 0, No Iterations 0
DILUPBiCGStab:  Solving for CO2, Initial residual = 0.000979593, Final residual = 3.92995e-09, No Iterations 3
DILUPBiCGStab:  Solving for h, Initial residual = 0.00117698, Final residual = 5.49456e-09, No Iterations 3
min/max(T) = 299.393, 1044.99
GAMGPCG:  Solving for p_rgh, Initial residual = 0.0147771, Final residual = 6.25345e-07, No Iterations 4
diagonal:  Solving for rho, Initial residual = 0, Final residual = 0, No Iterations 0
time step continuity errors : sum local = 3.63413e-08, global = 5.37192e-09, cumulative = -2.79072e-07
GAMGPCG:  Solving for p_rgh, Initial residual = 0.00270137, Final residual = 9.03003e-07, No Iterations 3
diagonal:  Solving for rho, Initial residual = 0, Final residual = 0, No Iterations 0
time step continuity errors : sum local = 5.21677e-08, global = 5.91588e-09, cumulative = -2.73156e-07
DILUPBiCGStab:  Solving for omega, Initial residual = 8.13885e-05, Final residual = 1.06211e-09, No Iterations 2
DILUPBiCGStab:  Solving for k, Initial residual = 0.0022242, Final residual = 2.54787e-09, No Iterations 3

ExecutionTime = 1.51 s  ClockTime = 2 s

    Overall     = 0.00127976, 0.01
Time = 261

diagonal:  Solving for rho, Initial residual = 0, Final residual = 0, No Iterations 0

Execution time for mesh.update() = 0 s

DILUPBiCGStab:  Solving for Ux, Initial residual = 0.00924635, Final residual = 1.21546e-09, No Iterations 3
DILUPBiCGStab:  Solving for Uy, Initial residual = 0.0126795, Final residual = 5.15174e-09, No Iterations 3
DILUPBiCGStab:  Solving for O2, Initial residual = 0.000990789, Final residual = 2.1859e-09, No Iterations 3
DILUPBiCGStab:  Solving for H2O, Initial residual = 0.000991092, Final residual = 2.18663e-09, No Iterations 3
DILUPBiCGStab:  Solving for CH4, Initial residual = 0, Final residual = 0, No Iterations 0
DILUPBiCGStab:  Solving for CO2, Initial residual = 0.000991092, Final residual = 2.1866e-09, No Iterations 3
DILUPBiCGStab:  Solving for h, Initial residual = 0.00118676, Final residual = 1.30747e-09, No Iterations 3
min/max(T) = 299.432, 1044.99
GAMGPCG:  Solving for p_rgh, Initial residual = 0.0147527, Final residual = 4.6012e-07, No Iterations 4
diagonal:  Solving for rho, Initial residual = 0, Final residual = 0, No Iterations 0
time step continuity errors : sum local = 2.73384e-08, global = 1.70297e-09, cumulative = -2.71453e-07
GAMGPCG:  Solving for p_rgh, Initial residual = 0.00256098, Final residual = 8.61777e-07, No Iterations 3
diagonal:  Solving for rho, Initial residual = 0, Final residual = 0, No Iterations 0
time step continuity errors : sum local = 5.01617e-08, global = 5.98342e-09, cumulative = -2.6547e-07
DILUPBiCGStab:  Solving for omega, Initial residual = 8.11568e-05, Final residual = 1.09953e-09, No Iterations 2
DILUPBiCGStab:  Solving for k, Initial residual = 0.00220404, Final residual = 2.63163e-09, No Iterations 3

ExecutionTime = 1.62 s  ClockTime = 2 s

    Overall     = 0.00127505, 0.01
Time = 262

diagonal:  Solving for rho, Initial residual = 0, Final residual = 0, No Iterations 0

Execution time for mesh.update() = 0 s

DILUPBiCGStab:  Solving for Ux, Initial residual = 0.00939519, Final residual = 1.3507e-09, No Iterations 3
DILUPBiCGStab:  Solving for Uy, Initial residual = 0.0126467, Final residual = 3.02613e-10, No Iterations 4
DILUPBiCGStab:  Solving for O2, Initial residual = 0.000986016, Final residual = 2.16279e-09, No Iterations 3
DILUPBiCGStab:  Solving for H2O, Initial residual = 0.000986451, Final residual = 2.16186e-09, No Iterations 3
DILUPBiCGStab:  Solving for CH4, Initial residual = 0, Final residual = 0, No Iterations 0
DILUPBiCGStab:  Solving for CO2, Initial residual = 0.000986451, Final residual = 2.16185e-09, No Iterations 3
DILUPBiCGStab:  Solving for h, Initial residual = 0.00118111, Final residual = 4.85116e-09, No Iterations 3
min/max(T) = 299.429, 1044.99
GAMGPCG:  Solving for p_rgh, Initial residual = 0.0147695, Final residual = 4.41993e-07, No Iterations 4
diagonal:  Solving for rho, Initial residual = 0, Final residual = 0, No Iterations 0
time step continuity errors : sum local = 2.64576e-08, global = 2.11893e-09, cumulative = -2.63351e-07
GAMGPCG:  Solving for p_rgh, Initial residual = 0.00268712, Final residual = 9.18947e-07, No Iterations 3
diagonal:  Solving for rho, Initial residual = 0, Final residual = 0, No Iterations 0
time step continuity errors : sum local = 5.33427e-08, global = 7.06398e-09, cumulative = -2.56287e-07
DILUPBiCGStab:  Solving for omega, Initial residual = 8.09728e-05, Final residual = 1.14148e-09, No Iterations 2
DILUPBiCGStab:  Solving for k, Initial residual = 0.00219143, Final residual = 2.57909e-09, No Iterations 3

ExecutionTime = 1.73 s  ClockTime = 2 s

    Overall     = 0.00127592, 0.01
Time = 263

diagonal:  Solving for rho, Initial residual = 0, Final residual = 0, No Iterations 0

Execution time for mesh.update() = 0 s

DILUPBiCGStab:  Solving for Ux, Initial residual = 0.00946642, Final residual = 1.43744e-09, No Iterations 3
DILUPBiCGStab:  Solving for Uy, Initial residual = 0.0125486, Final residual = 3.62248e-09, No Iterations 3
DILUPBiCGStab:  Solving for O2, Initial residual = 0.000994894, Final residual = 8.75102e-10, No Iterations 3
DILUPBiCGStab:  Solving for H2O, Initial residual = 0.000995172, Final residual = 8.74916e-10, No Iterations 3
DILUPBiCGStab:  Solving for CH4, Initial residual = 0, Final residual = 0, No Iterations 0
DILUPBiCGStab:  Solving for CO2, Initial residual = 0.000995172, Final residual = 8.74912e-10, No Iterations 3
DILUPBiCGStab:  Solving for h, Initial residual = 0.00118803, Final residual = 9.744e-10, No Iterations 3
min/max(T) = 299.47, 1044.99
GAMGPCG:  Solving for p_rgh, Initial residual = 0.0151305, Final residual = 4.07154e-07, No Iterations 4
diagonal:  Solving for rho, Initial residual = 0, Final residual = 0, No Iterations 0
time step continuity errors : sum local = 2.49176e-08, global = 1.51728e-09, cumulative = -2.5477e-07
GAMGPCG:  Solving for p_rgh, Initial residual = 0.00268691, Final residual = 8.92263e-07, No Iterations 3
diagonal:  Solving for rho, Initial residual = 0, Final residual = 0, No Iterations 0
time step continuity errors : sum local = 5.08073e-08, global = 7.29036e-09, cumulative = -2.47479e-07
DILUPBiCGStab:  Solving for omega, Initial residual = 8.20699e-05, Final residual = 1.25304e-09, No Iterations 2
DILUPBiCGStab:  Solving for k, Initial residual = 0.00220084, Final residual = 3.07638e-09, No Iterations 3

ExecutionTime = 1.84 s  ClockTime = 2 s

    Overall     = 0.00127101, 0.01
Time = 264

diagonal:  Solving for rho, Initial residual = 0, Final residual = 0, No Iterations 0

Execution time for mesh.update() = 0 s

DILUPBiCGStab:  Solving for Ux, Initial residual = 0.0096891, Final residual = 1.70665e-09, No Iterations 3
DILUPBiCGStab:  Solving for Uy, Initial residual = 0.0124953, Final residual = 2.2406e-09, No Iterations 3
DILUPBiCGStab:  Solving for O2, Initial residual = 0.000995268, Final residual = 7.70333e-10, No Iterations 3
DILUPBiCGStab:  Solving for H2O, Initial residual = 0.000995674, Final residual = 7.70357e-10, No Iterations 3
DILUPBiCGStab:  Solving for CH4, Initial residual = 0, Final residual = 0, No Iterations 0
DILUPBiCGStab:  Solving for CO2, Initial residual = 0.000995673, Final residual = 7.70356e-10, No Iterations 3
DILUPBiCGStab:  Solving for h, Initial residual = 0.00118658, Final residual = 8.51132e-10, No Iterations 3
min/max(T) = 299.466, 1044.99
GAMGPCG:  Solving for p_rgh, Initial residual = 0.0155053, Final residual = 4.08034e-07, No Iterations 4
diagonal:  Solving for rho, Initial residual = 0, Final residual = 0, No Iterations 0
time step continuity errors : sum local = 2.49051e-08, global = 3.31952e-09, cumulative = -2.4416e-07
GAMGPCG:  Solving for p_rgh, Initial residual = 0.00268892, Final residual = 8.11736e-07, No Iterations 3
diagonal:  Solving for rho, Initial residual = 0, Final residual = 0, No Iterations 0
time step continuity errors : sum local = 4.67337e-08, global = 5.93222e-09, cumulative = -2.38228e-07
DILUPBiCGStab:  Solving for omega, Initial residual = 8.13039e-05, Final residual = 1.29433e-09, No Iterations 2
DILUPBiCGStab:  Solving for k, Initial residual = 0.00219324, Final residual = 2.44837e-09, No Iterations 3

ExecutionTime = 1.95 s  ClockTime = 2 s

    Overall     = 0.00127209, 0.01
Time = 265

diagonal:  Solving for rho, Initial residual = 0, Final residual = 0, No Iterations 0

Execution time for mesh.update() = 0 s

DILUPBiCGStab:  Solving for Ux, Initial residual = 0.00982533, Final residual = 1.75765e-09, No Iterations 3
DILUPBiCGStab:  Solving for Uy, Initial residual = 0.012394, Final residual = 1.63286e-09, No Iterations 3
DILUPBiCGStab:  Solving for O2, Initial residual = 0.000995778, Final residual = 8.36971e-10, No Iterations 3
DILUPBiCGStab:  Solving for H2O, Initial residual = 0.000996036, Final residual = 8.36982e-10, No Iterations 3
DILUPBiCGStab:  Solving for CH4, Initial residual = 0, Final residual = 0, No Iterations 0
DILUPBiCGStab:  Solving for CO2, Initial residual = 0.000996035, Final residual = 8.36981e-10, No Iterations 3
DILUPBiCGStab:  Solving for h, Initial residual = 0.00118868, Final residual = 9.03136e-10, No Iterations 3
min/max(T) = 299.507, 1044.99
GAMGPCG:  Solving for p_rgh, Initial residual = 0.0154973, Final residual = 4.34847e-07, No Iterations 4
diagonal:  Solving for rho, Initial residual = 0, Final residual = 0, No Iterations 0
time step continuity errors : sum local = 2.66808e-08, global = 2.26254e-09, cumulative = -2.35965e-07
GAMGPCG:  Solving for p_rgh, Initial residual = 0.0028223, Final residual = 6.71791e-07, No Iterations 3
diagonal:  Solving for rho, Initial residual = 0, Final residual = 0, No Iterations 0
time step continuity errors : sum local = 3.97023e-08, global = 3.94258e-09, cumulative = -2.32023e-07
DILUPBiCGStab:  Solving for omega, Initial residual = 8.04071e-05, Final residual = 1.33765e-09, No Iterations 2
DILUPBiCGStab:  Solving for k, Initial residual = 0.0021931, Final residual = 1.78996e-09, No Iterations 3

ExecutionTime = 2.06 s  ClockTime = 2 s

    Overall     = 0.00126818, 0.01
Time = 266

diagonal:  Solving for rho, Initial residual = 0, Final residual = 0, No Iterations 0

Execution time for mesh.update() = 0 s

DILUPBiCGStab:  Solving for Ux, Initial residual = 0.00993617, Final residual = 1.65311e-09, No Iterations 3
DILUPBiCGStab:  Solving for Uy, Initial residual = 0.012201, Final residual = 1.92611e-09, No Iterations 3
DILUPBiCGStab:  Solving for O2, Initial residual = 0.00100907, Final residual = 9.38946e-10, No Iterations 3
DILUPBiCGStab:  Solving for H2O, Initial residual = 0.00100945, Final residual = 9.38956e-10, No Iterations 3
DILUPBiCGStab:  Solving for CH4, Initial residual = 0, Final residual = 0, No Iterations 0
DILUPBiCGStab:  Solving for CO2, Initial residual = 0.00100945, Final residual = 9.38955e-10, No Iterations 3
DILUPBiCGStab:  Solving for h, Initial residual = 0.00120328, Final residual = 9.63284e-10, No Iterations 3
min/max(T) = 299.501, 1044.99
GAMGPCG:  Solving for p_rgh, Initial residual = 0.0150098, Final residual = 3.96301e-07, No Iterations 4
diagonal:  Solving for rho, Initial residual = 0, Final residual = 0, No Iterations 0
time step continuity errors : sum local = 2.40302e-08, global = 3.43487e-09, cumulative = -2.28588e-07
GAMGPCG:  Solving for p_rgh, Initial residual = 0.00266051, Final residual = 7.22065e-07, No Iterations 3
diagonal:  Solving for rho, Initial residual = 0, Final residual = 0, No Iterations 0
time step continuity errors : sum local = 4.22158e-08, global = 4.43191e-09, cumulative = -2.24156e-07
DILUPBiCGStab:  Solving for omega, Initial residual = 8.24134e-05, Final residual = 1.38432e-09, No Iterations 2
DILUPBiCGStab:  Solving for k, Initial residual = 0.00219035, Final residual = 1.80425e-09, No Iterations 3

ExecutionTime = 2.17 s  ClockTime = 3 s

    Overall     = 0.00127003, 0.01
Time = 267

diagonal:  Solving for rho, Initial residual = 0, Final residual = 0, No Iterations 0

Execution time for mesh.update() = 0 s

DILUPBiCGStab:  Solving for Ux, Initial residual = 0.0101194, Final residual = 1.56776e-09, No Iterations 3
DILUPBiCGStab:  Solving for Uy, Initial residual = 0.0120943, Final residual = 1.82675e-09, No Iterations 3
DILUPBiCGStab:  Solving for O2, Initial residual = 0.00100838, Final residual = 1.08536e-09, No Iterations 3
DILUPBiCGStab:  Solving for H2O, Initial residual = 0.00100863, Final residual = 1.08538e-09, No Iterations 3
DILUPBiCGStab:  Solving for CH4, Initial residual = 0, Final residual = 0, No Iterations 0
DILUPBiCGStab:  Solving for CO2, Initial residual = 0.00100863, Final residual = 1.08538e-09, No Iterations 3
DILUPBiCGStab:  Solving for h, Initial residual = 0.00119985, Final residual = 1.20454e-09, No Iterations 3
min/max(T) = 299.539, 1044.99
GAMGPCG:  Solving for p_rgh, Initial residual = 0.0153007, Final residual = 3.78423e-07, No Iterations 4
diagonal:  Solving for rho, Initial residual = 0, Final residual = 0, No Iterations 0
time step continuity errors : sum local = 2.2628e-08, global = 2.15305e-10, cumulative = -2.2394e-07
GAMGPCG:  Solving for p_rgh, Initial residual = 0.00283652, Final residual = 6.88964e-07, No Iterations 3
diagonal:  Solving for rho, Initial residual = 0, Final residual = 0, No Iterations 0
time step continuity errors : sum local = 3.95958e-08, global = 4.8059e-09, cumulative = -2.19135e-07
DILUPBiCGStab:  Solving for omega, Initial residual = 8.20233e-05, Final residual = 1.25274e-09, No Iterations 2
DILUPBiCGStab:  Solving for k, Initial residual = 0.002196, Final residual = 1.66323e-09, No Iterations 3

ExecutionTime = 2.28 s  ClockTime = 3 s

    Overall     = 0.00126681, 0.01
Time = 268

diagonal:  Solving for rho, Initial residual = 0, Final residual = 0, No Iterations 0

Execution time for mesh.update() = 0 s

DILUPBiCGStab:  Solving for Ux, Initial residual = 0.0101824, Final residual = 1.28711e-09, No Iterations 3
DILUPBiCGStab:  Solving for Uy, Initial residual = 0.0119636, Final residual = 1.8931e-09, No Iterations 3
DILUPBiCGStab:  Solving for O2, Initial residual = 0.0010157, Final residual = 1.82225e-09, No Iterations 3
DILUPBiCGStab:  Solving for H2O, Initial residual = 0.00101605, Final residual = 1.822e-09, No Iterations 3
DILUPBiCGStab:  Solving for CH4, Initial residual = 0, Final residual = 0, No Iterations 0
DILUPBiCGStab:  Solving for CO2, Initial residual = 0.00101605, Final residual = 1.822e-09, No Iterations 3
DILUPBiCGStab:  Solving for h, Initial residual = 0.0012055, Final residual = 1.55498e-09, No Iterations 3
min/max(T) = 299.536, 1044.99
GAMGPCG:  Solving for p_rgh, Initial residual = 0.0150199, Final residual = 3.63133e-07, No Iterations 4
diagonal:  Solving for rho, Initial residual = 0, Final residual = 0, No Iterations 0
time step continuity errors : sum local = 2.15084e-08, global = 1.85626e-09, cumulative = -2.17278e-07
GAMGPCG:  Solving for p_rgh, Initial residual = 0.00275694, Final residual = 7.45194e-07, No Iterations 3
diagonal:  Solving for rho, Initial residual = 0, Final residual = 0, No Iterations 0
time step continuity errors : sum local = 4.32478e-08, global = 6.83164e-09, cumulative = -2.10447e-07
DILUPBiCGStab:  Solving for omega, Initial residual = 8.28155e-05, Final residual = 1.17225e-09, No Iterations 2
DILUPBiCGStab:  Solving for k, Initial residual = 0.00220172, Final residual = 1.70235e-09, No Iterations 3

ExecutionTime = 2.39 s  ClockTime = 3 s

    Overall     = 0.0012685, 0.01
Time = 269

diagonal:  Solving for rho, Initial residual = 0, Final residual = 0, No Iterations 0

Execution time for mesh.update() = 0 s

DILUPBiCGStab:  Solving for Ux, Initial residual = 0.0102857, Final residual = 1.56101e-09, No Iterations 3
DILUPBiCGStab:  Solving for Uy, Initial residual = 0.0118444, Final residual = 1.83746e-09, No Iterations 3
DILUPBiCGStab:  Solving for O2, Initial residual = 0.00102288, Final residual = 1.37235e-09, No Iterations 3
DILUPBiCGStab:  Solving for H2O, Initial residual = 0.00102313, Final residual = 1.37274e-09, No Iterations 3
DILUPBiCGStab:  Solving for CH4, Initial residual = 0, Final residual = 0, No Iterations 0
DILUPBiCGStab:  Solving for CO2, Initial residual = 0.00102313, Final residual = 1.37275e-09, No Iterations 3
DILUPBiCGStab:  Solving for h, Initial residual = 0.00121138, Final residual = 8.62569e-10, No Iterations 3
min/max(T) = 299.562, 1044.99
GAMGPCG:  Solving for p_rgh, Initial residual = 0.0150457, Final residual = 4.65644e-07, No Iterations 4
diagonal:  Solving for rho, Initial residual = 0, Final residual = 0, No Iterations 0
time step continuity errors : sum local = 2.67341e-08, global = -3.12381e-09, cumulative = -2.1357e-07
GAMGPCG:  Solving for p_rgh, Initial residual = 0.00274011, Final residual = 7.87111e-07, No Iterations 3
diagonal:  Solving for rho, Initial residual = 0, Final residual = 0, No Iterations 0
time step continuity errors : sum local = 4.5378e-08, global = 7.85013e-09, cumulative = -2.0572e-07
DILUPBiCGStab:  Solving for omega, Initial residual = 8.31234e-05, Final residual = 1.13183e-09, No Iterations 2
DILUPBiCGStab:  Solving for k, Initial residual = 0.00221097, Final residual = 1.75159e-09, No Iterations 3

ExecutionTime = 2.5 s  ClockTime = 3 s

    Overall     = 0.00126509, 0.01
Time = 270

diagonal:  Solving for rho, Initial residual = 0, Final residual = 0, No Iterations 0

Execution time for mesh.update() = 0 s

DILUPBiCGStab:  Solving for Ux, Initial residual = 0.0103714, Final residual = 1.78489e-09, No Iterations 3
DILUPBiCGStab:  Solving for Uy, Initial residual = 0.0117518, Final residual = 1.43583e-09, No Iterations 3
GAMGPCG:  Solving for G, Initial residual = 0.0833881, Final residual = 4.82473e-05, No Iterations 5
DILUPBiCGStab:  Solving for O2, Initial residual = 0.00102121, Final residual = 4.83956e-09, No Iterations 3
DILUPBiCGStab:  Solving for H2O, Initial residual = 0.00102155, Final residual = 4.83854e-09, No Iterations 3
DILUPBiCGStab:  Solving for CH4, Initial residual = 0, Final residual = 0, No Iterations 0
DILUPBiCGStab:  Solving for CO2, Initial residual = 0.00102155, Final residual = 4.83854e-09, No Iterations 3
DILUPBiCGStab:  Solving for h, Initial residual = 0.00120573, Final residual = 2.35018e-09, No Iterations 3
min/max(T) = 299.549, 1044.99
GAMGPCG:  Solving for p_rgh, Initial residual = 0.0156137, Final residual = 4.02809e-07, No Iterations 4
diagonal:  Solving for rho, Initial residual = 0, Final residual = 0, No Iterations 0
time step continuity errors : sum local = 2.38529e-08, global = 8.15856e-10, cumulative = -2.04904e-07
GAMGPCG:  Solving for p_rgh, Initial residual = 0.00280779, Final residual = 9.07904e-07, No Iterations 3
diagonal:  Solving for rho, Initial residual = 0, Final residual = 0, No Iterations 0
time step continuity errors : sum local = 5.15763e-08, global = 8.13669e-09, cumulative = -1.96768e-07
DILUPBiCGStab:  Solving for omega, Initial residual = 8.79851e-05, Final residual = 1.17054e-09, No Iterations 2
DILUPBiCGStab:  Solving for k, Initial residual = 0.00222633, Final residual = 1.68577e-09, No Iterations 3

ExecutionTime = 2.75 s  ClockTime = 3 s

    Overall     = 0.00126723, 0.01
Time = 271

diagonal:  Solving for rho, Initial residual = 0, Final residual = 0, No Iterations 0

Execution time for mesh.update() = 0 s

DILUPBiCGStab:  Solving for Ux, Initial residual = 0.0107089, Final residual = 1.43448e-09, No Iterations 3
DILUPBiCGStab:  Solving for Uy, Initial residual = 0.0117393, Final residual = 1.45911e-09, No Iterations 3
DILUPBiCGStab:  Solving for O2, Initial residual = 0.0010259, Final residual = 2.48829e-09, No Iterations 3
DILUPBiCGStab:  Solving for H2O, Initial residual = 0.00102601, Final residual = 2.48815e-09, No Iterations 3
DILUPBiCGStab:  Solving for CH4, Initial residual = 0, Final residual = 0, No Iterations 0
DILUPBiCGStab:  Solving for CO2, Initial residual = 0.00102601, Final residual = 2.48813e-09, No Iterations 3
DILUPBiCGStab:  Solving for h, Initial residual = 0.00120576, Final residual = 2.36559e-09, No Iterations 3
min/max(T) = 299.57, 1044.99
GAMGPCG:  Solving for p_rgh, Initial residual = 0.0155377, Final residual = 5.99811e-07, No Iterations 4
diagonal:  Solving for rho, Initial residual = 0, Final residual = 0, No Iterations 0
time step continuity errors : sum local = 3.54087e-08, global = -2.33078e-09, cumulative = -1.99099e-07
GAMGPCG:  Solving for p_rgh, Initial residual = 0.00283338, Final residual = 9.25152e-07, No Iterations 3
diagonal:  Solving for rho, Initial residual = 0, Final residual = 0, No Iterations 0
time step continuity errors : sum local = 5.30729e-08, global = 8.88603e-09, cumulative = -1.90213e-07
DILUPBiCGStab:  Solving for omega, Initial residual = 8.43855e-05, Final residual = 1.02454e-09, No Iterations 2
DILUPBiCGStab:  Solving for k, Initial residual = 0.00222685, Final residual = 1.61053e-09, No Iterations 3

ExecutionTime = 2.86 s  ClockTime = 3 s

    Overall     = 0.00126477, 0.01
Time = 272

diagonal:  Solving for rho, Initial residual = 0, Final residual = 0, No Iterations 0

Execution time for mesh.update() = 0 s

DILUPBiCGStab:  Solving for Ux, Initial residual = 0.0107548, Final residual = 1.29599e-09, No Iterations 3
DILUPBiCGStab:  Solving for Uy, Initial residual = 0.0114666, Final residual = 1.27937e-09, No Iterations 3
DILUPBiCGStab:  Solving for O2, Initial residual = 0.00103868, Final residual = 6.30948e-09, No Iterations 3
DILUPBiCGStab:  Solving for H2O, Initial residual = 0.00103884, Final residual = 6.30961e-09, No Iterations 3
DILUPBiCGStab:  Solving for CH4, Initial residual = 0, Final residual = 0, No Iterations 0
DILUPBiCGStab:  Solving for CO2, Initial residual = 0.00103884, Final residual = 6.30972e-09, No Iterations 3
DILUPBiCGStab:  Solving for h, Initial residual = 0.00122139, Final residual = 5.85003e-09, No Iterations 3
min/max(T) = 299.554, 1044.99
GAMGPCG:  Solving for p_rgh, Initial residual = 0.0152711, Final residual = 5.15525e-07, No Iterations 4
diagonal:  Solving for rho, Initial residual = 0, Final residual = 0, No Iterations 0
time step continuity errors : sum local = 3.0575e-08, global = -1.00194e-09, cumulative = -1.91214e-07
GAMGPCG:  Solving for p_rgh, Initial residual = 0.00282831, Final residual = 8.75711e-07, No Iterations 3
diagonal:  Solving for rho, Initial residual = 0, Final residual = 0, No Iterations 0
time step continuity errors : sum local = 5.10286e-08, global = 7.81063e-09, cumulative = -1.83404e-07
DILUPBiCGStab:  Solving for omega, Initial residual = 8.60587e-05, Final residual = 9.72912e-10, No Iterations 2
DILUPBiCGStab:  Solving for k, Initial residual = 0.00223921, Final residual = 1.33875e-09, No Iterations 3

ExecutionTime = 2.97 s  ClockTime = 3 s

    Overall     = 0.00126778, 0.01
Time = 273

diagonal:  Solving for rho, Initial residual = 0, Final residual = 0, No Iterations 0

Execution time for mesh.update() = 0 s

DILUPBiCGStab:  Solving for Ux, Initial residual = 0.0107047, Final residual = 1.12459e-09, No Iterations 3
DILUPBiCGStab:  Solving for Uy, Initial residual = 0.0112708, Final residual = 1.20013e-09, No Iterations 3
DILUPBiCGStab:  Solving for O2, Initial residual = 0.00103705, Final residual = 8.02185e-10, No Iterations 3
DILUPBiCGStab:  Solving for H2O, Initial residual = 0.00103721, Final residual = 8.02112e-10, No Iterations 3
DILUPBiCGStab:  Solving for CH4, Initial residual = 0, Final residual = 0, No Iterations 0
DILUPBiCGStab:  Solving for CO2, Initial residual = 0.00103721, Final residual = 8.02112e-10, No Iterations 3
DILUPBiCGStab:  Solving for h, Initial residual = 0.00121534, Final residual = 8.90945e-10, No Iterations 3
min/max(T) = 299.567, 1044.99
GAMGPCG:  Solving for p_rgh, Initial residual = 0.0148421, Final residual = 6.84776e-07, No Iterations 4
diagonal:  Solving for rho, Initial residual = 0, Final residual = 0, No Iterations 0
time step continuity errors : sum local = 4.02001e-08, global = -4.17179e-10, cumulative = -1.83821e-07
GAMGPCG:  Solving for p_rgh, Initial residual = 0.00271742, Final residual = 9.18258e-07, No Iterations 3
diagonal:  Solving for rho, Initial residual = 0, Final residual = 0, No Iterations 0
time step continuity errors : sum local = 5.31673e-08, global = 8.41092e-09, cumulative = -1.7541e-07
DILUPBiCGStab:  Solving for omega, Initial residual = 8.67924e-05, Final residual = 9.3025e-10, No Iterations 2
DILUPBiCGStab:  Solving for k, Initial residual = 0.00224422, Final residual = 1.37114e-09, No Iterations 3

ExecutionTime = 3.08 s  ClockTime = 3 s

    Overall     = 0.00126613, 0.01
Time = 274

diagonal:  Solving for rho, Initial residual = 0, Final residual = 0, No Iterations 0

Execution time for mesh.update() = 0 s

DILUPBiCGStab:  Solving for Ux, Initial residual = 0.0108532, Final residual = 1.05749e-09, No Iterations 3
DILUPBiCGStab:  Solving for Uy, Initial residual = 0.0111531, Final residual = 1.24052e-09, No Iterations 3
DILUPBiCGStab:  Solving for O2, Initial residual = 0.0010394, Final residual = 7.32687e-10, No Iterations 3
DILUPBiCGStab:  Solving for H2O, Initial residual = 0.00103954, Final residual = 7.32637e-10, No Iterations 3
DILUPBiCGStab:  Solving for CH4, Initial residual = 0, Final residual = 0, No Iterations 0
DILUPBiCGStab:  Solving for CO2, Initial residual = 0.00103954, Final residual = 7.32636e-10, No Iterations 3
DILUPBiCGStab:  Solving for h, Initial residual = 0.00121685, Final residual = 8.48552e-10, No Iterations 3
min/max(T) = 299.556, 1044.99
GAMGPCG:  Solving for p_rgh, Initial residual = 0.0146526, Final residual = 4.68401e-07, No Iterations 4
diagonal:  Solving for rho, Initial residual = 0, Final residual = 0, No Iterations 0
time step continuity errors : sum local = 2.75205e-08, global = -4.06836e-09, cumulative = -1.79478e-07
GAMGPCG:  Solving for p_rgh, Initial residual = 0.00283486, Final residual = 9.032e-07, No Iterations 3
diagonal:  Solving for rho, Initial residual = 0, Final residual = 0, No Iterations 0
time step continuity errors : sum local = 5.16904e-08, global = 7.5892e-09, cumulative = -1.71889e-07
DILUPBiCGStab:  Solving for omega, Initial residual = 8.62392e-05, Final residual = 9.07393e-10, No Iterations 2
DILUPBiCGStab:  Solving for k, Initial residual = 0.00224896, Final residual = 9.88523e-10, No Iterations 3

ExecutionTime = 3.19 s  ClockTime = 4 s

    Overall     = 0.00126939, 0.01
Time = 275

diagonal:  Solving for rho, Initial residual = 0, Final residual = 0, No Iterations 0

Execution time for mesh.update() = 0 s

DILUPBiCGStab:  Solving for Ux, Initial residual = 0.0109108, Final residual = 9.55585e-10, No Iterations 3
DILUPBiCGStab:  Solving for Uy, Initial residual = 0.0109325, Final residual = 1.16935e-09, No Iterations 3
DILUPBiCGStab:  Solving for O2, Initial residual = 0.00105289, Final residual = 8.80617e-09, No Iterations 2
DILUPBiCGStab:  Solving for H2O, Initial residual = 0.00105325, Final residual = 8.80557e-09, No Iterations 2
DILUPBiCGStab:  Solving for CH4, Initial residual = 0, Final residual = 0, No Iterations 0
DILUPBiCGStab:  Solving for CO2, Initial residual = 0.00105325, Final residual = 8.80556e-09, No Iterations 2
DILUPBiCGStab:  Solving for h, Initial residual = 0.00123289, Final residual = 9.51437e-09, No Iterations 2
min/max(T) = 299.562, 1044.99
GAMGPCG:  Solving for p_rgh, Initial residual = 0.0149202, Final residual = 7.96357e-07, No Iterations 4
diagonal:  Solving for rho, Initial residual = 0, Final residual = 0, No Iterations 0
time step continuity errors : sum local = 4.63133e-08, global = -2.04713e-09, cumulative = -1.73936e-07
GAMGPCG:  Solving for p_rgh, Initial residual = 0.00271695, Final residual = 1.83347e-07, No Iterations 4
diagonal:  Solving for rho, Initial residual = 0, Final residual = 0, No Iterations 0
time step continuity errors : sum local = 1.06312e-08, global = 1.58471e-09, cumulative = -1.72352e-07
DILUPBiCGStab:  Solving for omega, Initial residual = 8.54688e-05, Final residual = 8.78995e-10, No Iterations 2
DILUPBiCGStab:  Solving for k, Initial residual = 0.0022593, Final residual = 9.37991e-10, No Iterations 3

ExecutionTime = 3.3 s  ClockTime = 4 s

    Overall     = 0.00126757, 0.01
Time = 276

diagonal:  Solving for rho, Initial residual = 0, Final residual = 0, No Iterations 0

Execution time for mesh.update() = 0 s

DILUPBiCGStab:  Solving for Ux, Initial residual = 0.0109293, Final residual = 9.5321e-10, No Iterations 3
DILUPBiCGStab:  Solving for Uy, Initial residual = 0.0108334, Final residual = 1.12101e-09, No Iterations 3
DILUPBiCGStab:  Solving for O2, Initial residual = 0.00104927, Final residual = 8.4838e-09, No Iterations 2
DILUPBiCGStab:  Solving for H2O, Initial residual = 0.00104949, Final residual = 8.48362e-09, No Iterations 2
DILUPBiCGStab:  Solving for CH4, Initial residual = 0, Final residual = 0, No Iterations 0
DILUPBiCGStab:  Solving for CO2, Initial residual = 0.00104949, Final residual = 8.48361e-09, No Iterations 2
DILUPBiCGStab:  Solving for h, Initial residual = 0.00122311, Final residual = 9.45561e-09, No Iterations 2
min/max(T) = 299.552, 1044.99
GAMGPCG:  Solving for p_rgh, Initial residual = 0.0149147, Final residual = 6.18605e-07, No Iterations 4
diagonal:  Solving for rho, Initial residual = 0, Final residual = 0, No Iterations 0
time step continuity errors : sum local = 3.67979e-08, global = -3.93066e-09, cumulative = -1.76282e-07
GAMGPCG:  Solving for p_rgh, Initial residual = 0.00270821, Final residual = 1.81079e-07, No Iterations 4
diagonal:  Solving for rho, Initial residual = 0, Final residual = 0, No Iterations 0
time step continuity errors : sum local = 1.05105e-08, global = 2.02467e-09, cumulative = -1.74258e-07
DILUPBiCGStab:  Solving for omega, Initial residual = 8.58404e-05, Final residual = 8.40177e-10, No Iterations 2
DILUPBiCGStab:  Solving for k, Initial residual = 0.00226136, Final residual = 3.80484e-09, No Iterations 3

ExecutionTime = 3.42 s  ClockTime = 4 s

    Overall     = 0.00127087, 0.01
Time = 277

diagonal:  Solving for rho, Initial residual = 0, Final residual = 0, No Iterations 0

Execution time for mesh.update() = 0 s

DILUPBiCGStab:  Solving for Ux, Initial residual = 0.0110051, Final residual = 1.04815e-09, No Iterations 3
DILUPBiCGStab:  Solving for Uy, Initial residual = 0.0107436, Final residual = 1.02539e-09, No Iterations 3
DILUPBiCGStab:  Solving for O2, Initial residual = 0.00105227, Final residual = 8.65719e-09, No Iterations 2
DILUPBiCGStab:  Solving for H2O, Initial residual = 0.00105246, Final residual = 8.65689e-09, No Iterations 2
DILUPBiCGStab:  Solving for CH4, Initial residual = 0, Final residual = 0, No Iterations 0
DILUPBiCGStab:  Solving for CO2, Initial residual = 0.00105246, Final residual = 8.65689e-09, No Iterations 2
DILUPBiCGStab:  Solving for h, Initial residual = 0.00122476, Final residual = 9.64528e-09, No Iterations 2
min/max(T) = 299.548, 1044.99
GAMGPCG:  Solving for p_rgh, Initial residual = 0.0149566, Final residual = 8.10576e-07, No Iterations 4
diagonal:  Solving for rho, Initial residual = 0, Final residual = 0, No Iterations 0
time step continuity errors : sum local = 4.73898e-08, global = -4.00435e-09, cumulative = -1.78262e-07
GAMGPCG:  Solving for p_rgh, Initial residual = 0.0027644, Final residual = 1.93519e-07, No Iterations 4
diagonal:  Solving for rho, Initial residual = 0, Final residual = 0, No Iterations 0
time step continuity errors : sum local = 1.12557e-08, global = 2.2106e-09, cumulative = -1.76051e-07
DILUPBiCGStab:  Solving for omega, Initial residual = 8.64084e-05, Final residual = 8.74728e-10, No Iterations 2
DILUPBiCGStab:  Solving for k, Initial residual = 0.00228058, Final residual = 1.21765e-09, No Iterations 3

ExecutionTime = 3.53 s  ClockTime = 4 s

    Overall     = 0.00126867, 0.01
Time = 278

diagonal:  Solving for rho, Initial residual = 0, Final residual = 0, No Iterations 0

Execution time for mesh.update() = 0 s

DILUPBiCGStab:  Solving for Ux, Initial residual = 0.011114, Final residual = 9.86125e-09, No Iterations 3
DILUPBiCGStab:  Solving for Uy, Initial residual = 0.0105735, Final residual = 1.09658e-09, No Iterations 3
DILUPBiCGStab:  Solving for O2, Initial residual = 0.00105266, Final residual = 9.42854e-09, No Iterations 2
DILUPBiCGStab:  Solving for H2O, Initial residual = 0.00105279, Final residual = 9.42861e-09, No Iterations 2
DILUPBiCGStab:  Solving for CH4, Initial residual = 0, Final residual = 0, No Iterations 0
DILUPBiCGStab:  Solving for CO2, Initial residual = 0.00105279, Final residual = 9.42859e-09, No Iterations 2
DILUPBiCGStab:  Solving for h, Initial residual = 0.00122816, Final residual = 9.49318e-09, No Iterations 2
min/max(T) = 299.537, 1044.99
GAMGPCG:  Solving for p_rgh, Initial residual = 0.0147591, Final residual = 7.18747e-07, No Iterations 4
diagonal:  Solving for rho, Initial residual = 0, Final residual = 0, No Iterations 0
time step continuity errors : sum local = 4.20286e-08, global = -5.0854e-09, cumulative = -1.81137e-07
GAMGPCG:  Solving for p_rgh, Initial residual = 0.00256605, Final residual = 1.96634e-07, No Iterations 4
diagonal:  Solving for rho, Initial residual = 0, Final residual = 0, No Iterations 0
time step continuity errors : sum local = 1.1086e-08, global = 2.18266e-09, cumulative = -1.78954e-07
DILUPBiCGStab:  Solving for omega, Initial residual = 8.55455e-05, Final residual = 9.3167e-09, No Iterations 2
DILUPBiCGStab:  Solving for k, Initial residual = 0.00228046, Final residual = 1.1918e-09, No Iterations 3

ExecutionTime = 3.64 s  ClockTime = 4 s

    Overall     = 0.00127149, 0.01
Time = 279

diagonal:  Solving for rho, Initial residual = 0, Final residual = 0, No Iterations 0

Execution time for mesh.update() = 0 s

DILUPBiCGStab:  Solving for Ux, Initial residual = 0.0110876, Final residual = 9.58805e-09, No Iterations 3
DILUPBiCGStab:  Solving for Uy, Initial residual = 0.0103883, Final residual = 1.06945e-09, No Iterations 3
DILUPBiCGStab:  Solving for O2, Initial residual = 0.00105252, Final residual = 9.64384e-09, No Iterations 2
DILUPBiCGStab:  Solving for H2O, Initial residual = 0.00105271, Final residual = 9.64368e-09, No Iterations 2
DILUPBiCGStab:  Solving for CH4, Initial residual = 0, Final residual = 0, No Iterations 0
DILUPBiCGStab:  Solving for CO2, Initial residual = 0.00105271, Final residual = 9.64367e-09, No Iterations 2
DILUPBiCGStab:  Solving for h, Initial residual = 0.0012219, Final residual = 9.70269e-09, No Iterations 2
min/max(T) = 299.532, 1044.99
GAMGPCG:  Solving for p_rgh, Initial residual = 0.0147472, Final residual = 8.27056e-07, No Iterations 4
diagonal:  Solving for rho, Initial residual = 0, Final residual = 0, No Iterations 0
time step continuity errors : sum local = 4.8332e-08, global = -7.09492e-09, cumulative = -1.86049e-07
GAMGPCG:  Solving for p_rgh, Initial residual = 0.00264246, Final residual = 1.96266e-07, No Iterations 4
diagonal:  Solving for rho, Initial residual = 0, Final residual = 0, No Iterations 0
time step continuity errors : sum local = 1.11903e-08, global = 2.27989e-09, cumulative = -1.83769e-07
DILUPBiCGStab:  Solving for omega, Initial residual = 8.50982e-05, Final residual = 8.74789e-09, No Iterations 2
DILUPBiCGStab:  Solving for k, Initial residual = 0.00228983, Final residual = 1.05512e-09, No Iterations 3

ExecutionTime = 3.75 s  ClockTime = 4 s

    Overall     = 0.00127025, 0.01
Time = 280

diagonal:  Solving for rho, Initial residual = 0, Final residual = 0, No Iterations 0

Execution time for mesh.update() = 0 s

DILUPBiCGStab:  Solving for Ux, Initial residual = 0.0110372, Final residual = 8.83107e-09, No Iterations 3
DILUPBiCGStab:  Solving for Uy, Initial residual = 0.0102209, Final residual = 9.96075e-10, No Iterations 3
GAMGPCG:  Solving for G, Initial residual = 0.0946647, Final residual = 2.95261e-05, No Iterations 5
DILUPBiCGStab:  Solving for O2, Initial residual = 0.00106149, Final residual = 6.24118e-09, No Iterations 3
DILUPBiCGStab:  Solving for H2O, Initial residual = 0.0010616, Final residual = 6.24303e-09, No Iterations 3
DILUPBiCGStab:  Solving for CH4, Initial residual = 0, Final residual = 0, No Iterations 0
DILUPBiCGStab:  Solving for CO2, Initial residual = 0.0010616, Final residual = 6.24301e-09, No Iterations 3
DILUPBiCGStab:  Solving for h, Initial residual = 0.00123586, Final residual = 4.71559e-09, No Iterations 3
min/max(T) = 299.534, 1044.99
GAMGPCG:  Solving for p_rgh, Initial residual = 0.0143534, Final residual = 6.97188e-07, No Iterations 4
diagonal:  Solving for rho, Initial residual = 0, Final residual = 0, No Iterations 0
time step continuity errors : sum local = 4.09468e-08, global = -7.00724e-09, cumulative = -1.90776e-07
GAMGPCG:  Solving for p_rgh, Initial residual = 0.00255686, Final residual = 1.70562e-07, No Iterations 4
diagonal:  Solving for rho, Initial residual = 0, Final residual = 0, No Iterations 0
time step continuity errors : sum local = 9.6865e-09, global = 2.19344e-09, cumulative = -1.88583e-07
DILUPBiCGStab:  Solving for omega, Initial residual = 8.54067e-05, Final residual = 9.12562e-09, No Iterations 2
DILUPBiCGStab:  Solving for k, Initial residual = 0.00229054, Final residual = 1.2583e-09, No Iterations 3

ExecutionTime = 4 s  ClockTime = 4 s

    Overall     = 0.00127349, 0.01
Time = 281

diagonal:  Solving for rho, Initial residual = 0, Final residual = 0, No Iterations 0

Execution time for mesh.update() = 0 s

DILUPBiCGStab:  Solving for Ux, Initial residual = 0.0111141, Final residual = 8.22744e-09, No Iterations 3
DILUPBiCGStab:  Solving for Uy, Initial residual = 0.0100582, Final residual = 9.63823e-09, No Iterations 3
DILUPBiCGStab:  Solving for O2, Initial residual = 0.00104666, Final residual = 8.58235e-09, No Iterations 3
DILUPBiCGStab:  Solving for H2O, Initial residual = 0.00104689, Final residual = 8.57935e-09, No Iterations 3
DILUPBiCGStab:  Solving for CH4, Initial residual = 0, Final residual = 0, No Iterations 0
DILUPBiCGStab:  Solving for CO2, Initial residual = 0.00104689, Final residual = 8.57936e-09, No Iterations 3
DILUPBiCGStab:  Solving for h, Initial residual = 0.00121184, Final residual = 1.12943e-09, No Iterations 3
min/max(T) = 299.544, 1044.99
GAMGPCG:  Solving for p_rgh, Initial residual = 0.0147188, Final residual = 4.84997e-07, No Iterations 4
diagonal:  Solving for rho, Initial residual = 0, Final residual = 0, No Iterations 0
time step continuity errors : sum local = 2.87992e-08, global = -5.66514e-09, cumulative = -1.94248e-07
GAMGPCG:  Solving for p_rgh, Initial residual = 0.00266957, Final residual = 1.53154e-07, No Iterations 4
diagonal:  Solving for rho, Initial residual = 0, Final residual = 0, No Iterations 0
time step continuity errors : sum local = 8.62524e-09, global = 2.08156e-09, cumulative = -1.92167e-07
DILUPBiCGStab:  Solving for omega, Initial residual = 8.96152e-05, Final residual = 9.34243e-09, No Iterations 2
DILUPBiCGStab:  Solving for k, Initial residual = 0.00230994, Final residual = 4.00749e-09, No Iterations 3

ExecutionTime = 4.11 s  ClockTime = 4 s

    Overall     = 0.00127358, 0.01
Time = 282

diagonal:  Solving for rho, Initial residual = 0, Final residual = 0, No Iterations 0

Execution time for mesh.update() = 0 s

DILUPBiCGStab:  Solving for Ux, Initial residual = 0.0113467, Final residual = 9.49661e-09, No Iterations 3
DILUPBiCGStab:  Solving for Uy, Initial residual = 0.010057, Final residual = 9.30682e-09, No Iterations 3
DILUPBiCGStab:  Solving for O2, Initial residual = 0.00106226, Final residual = 7.95797e-09, No Iterations 3
DILUPBiCGStab:  Solving for H2O, Initial residual = 0.00106235, Final residual = 7.79274e-09, No Iterations 3
DILUPBiCGStab:  Solving for CH4, Initial residual = 0, Final residual = 0, No Iterations 0
DILUPBiCGStab:  Solving for CO2, Initial residual = 0.00106235, Final residual = 7.79284e-09, No Iterations 3
DILUPBiCGStab:  Solving for h, Initial residual = 0.00122808, Final residual = 1.94697e-09, No Iterations 3
min/max(T) = 299.553, 1044.99
GAMGPCG:  Solving for p_rgh, Initial residual = 0.0142241, Final residual = 4.92258e-07, No Iterations 4
diagonal:  Solving for rho, Initial residual = 0, Final residual = 0, No Iterations 0
time step continuity errors : sum local = 2.87308e-08, global = -4.07439e-09, cumulative = -1.96241e-07
GAMGPCG:  Solving for p_rgh, Initial residual = 0.0025496, Final residual = 1.77539e-07, No Iterations 4
diagonal:  Solving for rho, Initial residual = 0, Final residual = 0, No Iterations 0
time step continuity errors : sum local = 9.86167e-09, global = 1.04785e-09, cumulative = -1.95193e-07
DILUPBiCGStab:  Solving for omega, Initial residual = 8.70773e-05, Final residual = 9.23996e-09, No Iterations 2
DILUPBiCGStab:  Solving for k, Initial residual = 0.00230179, Final residual = 1.66701e-09, No Iterations 3

ExecutionTime = 4.22 s  ClockTime = 5 s

    Overall     = 0.00127737, 0.01
Time = 283

diagonal:  Solving for rho, Initial residual = 0, Final residual = 0, No Iterations 0

Execution time for mesh.update() = 0 s

DILUPBiCGStab:  Solving for Ux, Initial residual = 0.0111507, Final residual = 8.87338e-09, No Iterations 3
DILUPBiCGStab:  Solving for Uy, Initial residual = 0.00976685, Final residual = 9.23848e-09, No Iterations 3
DILUPBiCGStab:  Solving for O2, Initial residual = 0.00105835, Final residual = 7.81297e-10, No Iterations 3
DILUPBiCGStab:  Solving for H2O, Initial residual = 0.00105855, Final residual = 7.81308e-10, No Iterations 3
DILUPBiCGStab:  Solving for CH4, Initial residual = 0, Final residual = 0, No Iterations 0
DILUPBiCGStab:  Solving for CO2, Initial residual = 0.00105855, Final residual = 7.81307e-10, No Iterations 3
DILUPBiCGStab:  Solving for h, Initial residual = 0.00122384, Final residual = 9.55616e-10, No Iterations 3
min/max(T) = 299.559, 1044.99
GAMGPCG:  Solving for p_rgh, Initial residual = 0.0140334, Final residual = 5.63697e-07, No Iterations 4
diagonal:  Solving for rho, Initial residual = 0, Final residual = 0, No Iterations 0
time step continuity errors : sum local = 3.27957e-08, global = -6.03783e-09, cumulative = -2.01231e-07
GAMGPCG:  Solving for p_rgh, Initial residual = 0.00244666, Final residual = 1.70549e-07, No Iterations 4
diagonal:  Solving for rho, Initial residual = 0, Final residual = 0, No Iterations 0
time step continuity errors : sum local = 9.46579e-09, global = 7.40778e-10, cumulative = -2.0049e-07
DILUPBiCGStab:  Solving for omega, Initial residual = 8.58624e-05, Final residual = 9.6176e-09, No Iterations 2
DILUPBiCGStab:  Solving for k, Initial residual = 0.00229895, Final residual = 1.72944e-09, No Iterations 3

ExecutionTime = 4.33 s  ClockTime = 5 s

    Overall     = 0.00127708, 0.01
Time = 284

diagonal:  Solving for rho, Initial residual = 0, Final residual = 0, No Iterations 0

Execution time for mesh.update() = 0 s

DILUPBiCGStab:  Solving for Ux, Initial residual = 0.0110817, Final residual = 9.26247e-09, No Iterations 3
DILUPBiCGStab:  Solving for Uy, Initial residual = 0.0095824, Final residual = 8.8847e-09, No Iterations 3
DILUPBiCGStab:  Solving for O2, Initial residual = 0.00105434, Final residual = 1.05043e-09, No Iterations 3
DILUPBiCGStab:  Solving for H2O, Initial residual = 0.00105446, Final residual = 1.05037e-09, No Iterations 3
DILUPBiCGStab:  Solving for CH4, Initial residual = 0, Final residual = 0, No Iterations 0
DILUPBiCGStab:  Solving for CO2, Initial residual = 0.00105446, Final residual = 1.05037e-09, No Iterations 3
DILUPBiCGStab:  Solving for h, Initial residual = 0.00122013, Final residual = 8.01758e-10, No Iterations 3
min/max(T) = 299.551, 1044.99
GAMGPCG:  Solving for p_rgh, Initial residual = 0.0137665, Final residual = 4.686e-07, No Iterations 4
diagonal:  Solving for rho, Initial residual = 0, Final residual = 0, No Iterations 0
time step continuity errors : sum local = 2.68712e-08, global = -3.90144e-09, cumulative = -2.04392e-07
GAMGPCG:  Solving for p_rgh, Initial residual = 0.00242364, Final residual = 1.64199e-07, No Iterations 4
diagonal:  Solving for rho, Initial residual = 0, Final residual = 0, No Iterations 0
time step continuity errors : sum local = 8.92634e-09, global = 1.7561e-10, cumulative = -2.04216e-07
DILUPBiCGStab:  Solving for omega, Initial residual = 8.3696e-05, Final residual = 9.98178e-09, No Iterations 2
DILUPBiCGStab:  Solving for k, Initial residual = 0.00229074, Final residual = 1.5856e-09, No Iterations 3

ExecutionTime = 4.44 s  ClockTime = 5 s

    Overall     = 0.00128035, 0.01
Time = 285

diagonal:  Solving for rho, Initial residual = 0, Final residual = 0, No Iterations 0

Execution time for mesh.update() = 0 s

DILUPBiCGStab:  Solving for Ux, Initial residual = 0.0109648, Final residual = 9.91111e-10, No Iterations 3
DILUPBiCGStab:  Solving for Uy, Initial residual = 0.00929919, Final residual = 8.2471e-09, No Iterations 3
DILUPBiCGStab:  Solving for O2, Initial residual = 0.00104979, Final residual = 7.34042e-10, No Iterations 3
DILUPBiCGStab:  Solving for H2O, Initial residual = 0.00104999, Final residual = 7.3405e-10, No Iterations 3
DILUPBiCGStab:  Solving for CH4, Initial residual = 0, Final residual = 0, No Iterations 0
DILUPBiCGStab:  Solving for CO2, Initial residual = 0.00104999, Final residual = 7.34048e-10, No Iterations 3
DILUPBiCGStab:  Solving for h, Initial residual = 0.00121284, Final residual = 7.27233e-10, No Iterations 3
min/max(T) = 299.547, 1044.99
GAMGPCG:  Solving for p_rgh, Initial residual = 0.0135374, Final residual = 5.83043e-07, No Iterations 4
diagonal:  Solving for rho, Initial residual = 0, Final residual = 0, No Iterations 0
time step continuity errors : sum local = 3.40366e-08, global = -6.04649e-09, cumulative = -2.10262e-07
GAMGPCG:  Solving for p_rgh, Initial residual = 0.00237256, Final residual = 1.6169e-07, No Iterations 4
diagonal:  Solving for rho, Initial residual = 0, Final residual = 0, No Iterations 0
time step continuity errors : sum local = 8.78431e-09, global = 7.62155e-10, cumulative = -2.095e-07
DILUPBiCGStab:  Solving for omega, Initial residual = 8.41854e-05, Final residual = 7.68854e-10, No Iterations 2
DILUPBiCGStab:  Solving for k, Initial residual = 0.00229625, Final residual = 1.43969e-09, No Iterations 3

ExecutionTime = 4.56 s  ClockTime = 5 s

    Overall     = 0.00127876, 0.01
Time = 286

diagonal:  Solving for rho, Initial residual = 0, Final residual = 0, No Iterations 0

Execution time for mesh.update() = 0 s

DILUPBiCGStab:  Solving for Ux, Initial residual = 0.0110091, Final residual = 1.03024e-09, No Iterations 3
DILUPBiCGStab:  Solving for Uy, Initial residual = 0.00914017, Final residual = 8.23157e-09, No Iterations 3
DILUPBiCGStab:  Solving for O2, Initial residual = 0.0010556, Final residual = 7.16109e-10, No Iterations 3
DILUPBiCGStab:  Solving for H2O, Initial residual = 0.00105572, Final residual = 7.1618e-10, No Iterations 3
DILUPBiCGStab:  Solving for CH4, Initial residual = 0, Final residual = 0, No Iterations 0
DILUPBiCGStab:  Solving for CO2, Initial residual = 0.00105572, Final residual = 7.16179e-10, No Iterations 3
DILUPBiCGStab:  Solving for h, Initial residual = 0.0012209, Final residual = 9.97665e-09, No Iterations 2
min/max(T) = 299.538, 1044.99
GAMGPCG:  Solving for p_rgh, Initial residual = 0.0135249, Final residual = 4.65664e-07, No Iterations 4
diagonal:  Solving for rho, Initial residual = 0, Final residual = 0, No Iterations 0
time step continuity errors : sum local = 2.62933e-08, global = -5.01646e-09, cumulative = -2.14517e-07
GAMGPCG:  Solving for p_rgh, Initial residual = 0.00249939, Final residual = 1.59437e-07, No Iterations 4
diagonal:  Solving for rho, Initial residual = 0, Final residual = 0, No Iterations 0
time step continuity errors : sum local = 8.6023e-09, global = 3.32639e-10, cumulative = -2.14184e-07
DILUPBiCGStab:  Solving for omega, Initial residual = 8.41421e-05, Final residual = 8.01628e-10, No Iterations 2
DILUPBiCGStab:  Solving for k, Initial residual = 0.00228403, Final residual = 1.54023e-09, No Iterations 3

ExecutionTime = 4.67 s  ClockTime = 5 s

    Overall     = 0.00128138, 0.01
Time = 287

diagonal:  Solving for rho, Initial residual = 0, Final residual = 0, No Iterations 0

Execution time for mesh.update() = 0 s

DILUPBiCGStab:  Solving for Ux, Initial residual = 0.0108386, Final residual = 1.02881e-09, No Iterations 3
DILUPBiCGStab:  Solving for Uy, Initial residual = 0.00898057, Final residual = 8.49206e-09, No Iterations 3
DILUPBiCGStab:  Solving for O2, Initial residual = 0.00105109, Final residual = 7.85603e-10, No Iterations 3
DILUPBiCGStab:  Solving for H2O, Initial residual = 0.0010513, Final residual = 7.85734e-10, No Iterations 3
DILUPBiCGStab:  Solving for CH4, Initial residual = 0, Final residual = 0, No Iterations 0
DILUPBiCGStab:  Solving for CO2, Initial residual = 0.0010513, Final residual = 7.85733e-10, No Iterations 3
DILUPBiCGStab:  Solving for h, Initial residual = 0.00121022, Final residual = 7.90404e-10, No Iterations 3
min/max(T) = 299.54, 1044.99
GAMGPCG:  Solving for p_rgh, Initial residual = 0.0135466, Final residual = 5.59363e-07, No Iterations 4
diagonal:  Solving for rho, Initial residual = 0, Final residual = 0, No Iterations 0
time step continuity errors : sum local = 3.26832e-08, global = -6.7414e-09, cumulative = -2.20926e-07
GAMGPCG:  Solving for p_rgh, Initial residual = 0.00232281, Final residual = 1.60177e-07, No Iterations 4
diagonal:  Solving for rho, Initial residual = 0, Final residual = 0, No Iterations 0
time step continuity errors : sum local = 8.66191e-09, global = 3.96045e-13, cumulative = -2.20925e-07
DILUPBiCGStab:  Solving for omega, Initial residual = 8.38494e-05, Final residual = 7.98538e-10, No Iterations 2
DILUPBiCGStab:  Solving for k, Initial residual = 0.00228294, Final residual = 1.45511e-09, No Iterations 3

ExecutionTime = 4.78 s  ClockTime = 5 s

    Overall     = 0.00127931, 0.01
Time = 288

diagonal:  Solving for rho, Initial residual = 0, Final residual = 0, No Iterations 0

Execution time for mesh.update() = 0 s

DILUPBiCGStab:  Solving for Ux, Initial residual = 0.0108832, Final residual = 1.08755e-09, No Iterations 3
DILUPBiCGStab:  Solving for Uy, Initial residual = 0.00886181, Final residual = 8.69732e-09, No Iterations 3
DILUPBiCGStab:  Solving for O2, Initial residual = 0.00105847, Final residual = 9.62158e-09, No Iterations 2
DILUPBiCGStab:  Solving for H2O, Initial residual = 0.00105857, Final residual = 9.62259e-09, No Iterations 2
DILUPBiCGStab:  Solving for CH4, Initial residual = 0, Final residual = 0, No Iterations 0
DILUPBiCGStab:  Solving for CO2, Initial residual = 0.00105857, Final residual = 9.62258e-09, No Iterations 2
DILUPBiCGStab:  Solving for h, Initial residual = 0.00122076, Final residual = 8.29061e-10, No Iterations 3
min/max(T) = 299.546, 1044.99
GAMGPCG:  Solving for p_rgh, Initial residual = 0.012979, Final residual = 4.38338e-07, No Iterations 4
diagonal:  Solving for rho, Initial residual = 0, Final residual = 0, No Iterations 0
time step continuity errors : sum local = 2.54699e-08, global = -6.01303e-09, cumulative = -2.26938e-07
GAMGPCG:  Solving for p_rgh, Initial residual = 0.00235749, Final residual = 1.63639e-07, No Iterations 4
diagonal:  Solving for rho, Initial residual = 0, Final residual = 0, No Iterations 0
time step continuity errors : sum local = 8.79809e-09, global = -8.65232e-11, cumulative = -2.27025e-07
DILUPBiCGStab:  Solving for omega, Initial residual = 8.67633e-05, Final residual = 7.90304e-10, No Iterations 2
DILUPBiCGStab:  Solving for k, Initial residual = 0.00228387, Final residual = 1.95293e-09, No Iterations 3

ExecutionTime = 4.89 s  ClockTime = 5 s

    Overall     = 0.00128145, 0.01
Time = 289

diagonal:  Solving for rho, Initial residual = 0, Final residual = 0, No Iterations 0

Execution time for mesh.update() = 0 s

DILUPBiCGStab:  Solving for Ux, Initial residual = 0.0109224, Final residual = 1.06953e-09, No Iterations 3
DILUPBiCGStab:  Solving for Uy, Initial residual = 0.0086982, Final residual = 9.12714e-09, No Iterations 3
DILUPBiCGStab:  Solving for O2, Initial residual = 0.00105482, Final residual = 8.87839e-10, No Iterations 3
DILUPBiCGStab:  Solving for H2O, Initial residual = 0.00105521, Final residual = 8.87982e-10, No Iterations 3
DILUPBiCGStab:  Solving for CH4, Initial residual = 0, Final residual = 0, No Iterations 0
DILUPBiCGStab:  Solving for CO2, Initial residual = 0.00105521, Final residual = 8.87981e-10, No Iterations 3
DILUPBiCGStab:  Solving for h, Initial residual = 0.00121381, Final residual = 9.4791e-10, No Iterations 3
min/max(T) = 299.575, 1044.99
GAMGPCG:  Solving for p_rgh, Initial residual = 0.0130088, Final residual = 5.13621e-07, No Iterations 4
diagonal:  Solving for rho, Initial residual = 0, Final residual = 0, No Iterations 0
time step continuity errors : sum local = 3.02044e-08, global = -5.95375e-09, cumulative = -2.32978e-07
GAMGPCG:  Solving for p_rgh, Initial residual = 0.00241471, Final residual = 1.67042e-07, No Iterations 4
diagonal:  Solving for rho, Initial residual = 0, Final residual = 0, No Iterations 0
time step continuity errors : sum local = 9.06877e-09, global = 1.88765e-10, cumulative = -2.3279e-07
DILUPBiCGStab:  Solving for omega, Initial residual = 8.55079e-05, Final residual = 7.44004e-10, No Iterations 2
DILUPBiCGStab:  Solving for k, Initial residual = 0.00227886, Final residual = 1.12245e-09, No Iterations 3

ExecutionTime = 5.01 s  ClockTime = 5 s

    Overall     = 0.00127901, 0.01
Time = 290

diagonal:  Solving for rho, Initial residual = 0, Final residual = 0, No Iterations 0

Execution time for mesh.update() = 0 s

DILUPBiCGStab:  Solving for Ux, Initial residual = 0.0108261, Final residual = 1.11226e-09, No Iterations 3
DILUPBiCGStab:  Solving for Uy, Initial residual = 0.00852134, Final residual = 9.43087e-09, No Iterations 3
GAMGPCG:  Solving for G, Initial residual = 0.0865392, Final residual = 3.40369e-05, No Iterations 5
DILUPBiCGStab:  Solving for O2, Initial residual = 0.00104763, Final residual = 1.22927e-09, No Iterations 3
DILUPBiCGStab:  Solving for H2O, Initial residual = 0.00104789, Final residual = 1.23059e-09, No Iterations 3
DILUPBiCGStab:  Solving for CH4, Initial residual = 0, Final residual = 0, No Iterations 0
DILUPBiCGStab:  Solving for CO2, Initial residual = 0.00104789, Final residual = 1.23059e-09, No Iterations 3
DILUPBiCGStab:  Solving for h, Initial residual = 0.00120673, Final residual = 1.08444e-09, No Iterations 3
min/max(T) = 299.581, 1044.99
GAMGPCG:  Solving for p_rgh, Initial residual = 0.0125331, Final residual = 4.64629e-07, No Iterations 4
diagonal:  Solving for rho, Initial residual = 0, Final residual = 0, No Iterations 0
time step continuity errors : sum local = 2.70859e-08, global = -6.36251e-09, cumulative = -2.39152e-07
GAMGPCG:  Solving for p_rgh, Initial residual = 0.00223116, Final residual = 1.76796e-07, No Iterations 4
diagonal:  Solving for rho, Initial residual = 0, Final residual = 0, No Iterations 0
time step continuity errors : sum local = 9.47143e-09, global = 3.38872e-10, cumulative = -2.38813e-07
DILUPBiCGStab:  Solving for omega, Initial residual = 8.58201e-05, Final residual = 6.99172e-10, No Iterations 2
DILUPBiCGStab:  Solving for k, Initial residual = 0.00227747, Final residual = 1.24955e-09, No Iterations 3

ExecutionTime = 5.25 s  ClockTime = 6 s

    Overall     = 0.00128156, 0.01
Time = 291

diagonal:  Solving for rho, Initial residual = 0, Final residual = 0, No Iterations 0

Execution time for mesh.update() = 0 s

DILUPBiCGStab:  Solving for Ux, Initial residual = 0.0107935, Final residual = 1.15166e-09, No Iterations 3
DILUPBiCGStab:  Solving for Uy, Initial residual = 0.00834125, Final residual = 9.63782e-09, No Iterations 3
DILUPBiCGStab:  Solving for O2, Initial residual = 0.0010577, Final residual = 8.77448e-10, No Iterations 3
DILUPBiCGStab:  Solving for H2O, Initial residual = 0.00105807, Final residual = 8.77573e-10, No Iterations 3
DILUPBiCGStab:  Solving for CH4, Initial residual = 0, Final residual = 0, No Iterations 0
DILUPBiCGStab:  Solving for CO2, Initial residual = 0.00105807, Final residual = 8.77572e-10, No Iterations 3
DILUPBiCGStab:  Solving for h, Initial residual = 0.00121901, Final residual = 4.01464e-09, No Iterations 3
min/max(T) = 299.601, 1044.99
GAMGPCG:  Solving for p_rgh, Initial residual = 0.0128206, Final residual = 6.47533e-07, No Iterations 4
diagonal:  Solving for rho, Initial residual = 0, Final residual = 0, No Iterations 0
time step continuity errors : sum local = 3.73432e-08, global = -7.24615e-09, cumulative = -2.46059e-07
GAMGPCG:  Solving for p_rgh, Initial residual = 0.00226352, Final residual = 1.86171e-07, No Iterations 4
diagonal:  Solving for rho, Initial residual = 0, Final residual = 0, No Iterations 0
time step continuity errors : sum local = 1.0052e-08, global = 9.0712e-10, cumulative = -2.45152e-07
DILUPBiCGStab:  Solving for omega, Initial residual = 8.43158e-05, Final residual = 7.30202e-10, No Iterations 2
DILUPBiCGStab:  Solving for k, Initial residual = 0.00228267, Final residual = 1.34958e-09, No Iterations 3

ExecutionTime = 5.36 s  ClockTime = 6 s

    Overall     = 0.00127811, 0.01
Time = 292

diagonal:  Solving for rho, Initial residual = 0, Final residual = 0, No Iterations 0

Execution time for mesh.update() = 0.01 s

DILUPBiCGStab:  Solving for Ux, Initial residual = 0.0107884, Final residual = 1.1273e-09, No Iterations 3
DILUPBiCGStab:  Solving for Uy, Initial residual = 0.00826302, Final residual = 9.9324e-09, No Iterations 3
DILUPBiCGStab:  Solving for O2, Initial residual = 0.00105496, Final residual = 1.281e-09, No Iterations 3
DILUPBiCGStab:  Solving for H2O, Initial residual = 0.00105524, Final residual = 1.28123e-09, No Iterations 3
DILUPBiCGStab:  Solving for CH4, Initial residual = 0, Final residual = 0, No Iterations 0
DILUPBiCGStab:  Solving for CO2, Initial residual = 0.00105524, Final residual = 1.28123e-09, No Iterations 3
DILUPBiCGStab:  Solving for h, Initial residual = 0.0012155, Final residual = 2.43878e-09, No Iterations 3
min/max(T) = 299.585, 1044.99
GAMGPCG:  Solving for p_rgh, Initial residual = 0.0124485, Final residual = 6.48124e-07, No Iterations 4
diagonal:  Solving for rho, Initial residual = 0, Final residual = 0, No Iterations 0
time step continuity errors : sum local = 3.7322e-08, global = -7.92533e-09, cumulative = -2.53078e-07
GAMGPCG:  Solving for p_rgh, Initial residual = 0.00230636, Final residual = 1.8355e-07, No Iterations 4
diagonal:  Solving for rho, Initial residual = 0, Final residual = 0, No Iterations 0
time step continuity errors : sum local = 9.90139e-09, global = 1.47651e-09, cumulative = -2.51601e-07
DILUPBiCGStab:  Solving for omega, Initial residual = 8.34549e-05, Final residual = 9.86046e-09, No Iterations 2
DILUPBiCGStab:  Solving for k, Initial residual = 0.0022801, Final residual = 1.65272e-09, No Iterations 3

ExecutionTime = 5.48 s  ClockTime = 6 s

    Overall     = 0.00127926, 0.01
Time = 293

[...]
DILUPBiCGStab:  Solving for Uy, Initial residual = 0.00102035, Final residual = 7.85964e-09, No Iterations 2
GAMGPCG:  Solving for G, Initial residual = 0.0170889, Final residual = 4.50572e-05, No Iterations 3
DILUPBiCGStab:  Solving for O2, Initial residual = 0.000209811, Final residual = 1.82098e-09, No Iterations 2
DILUPBiCGStab:  Solving for H2O, Initial residual = 0.000209838, Final residual = 1.82103e-09, No Iterations 2
DILUPBiCGStab:  Solving for CH4, Initial residual = 0, Final residual = 0, No Iterations 0
DILUPBiCGStab:  Solving for CO2, Initial residual = 0.000209838, Final residual = 1.82103e-09, No Iterations 2
DILUPBiCGStab:  Solving for h, Initial residual = 0.000303472, Final residual = 2.27404e-09, No Iterations 2
min/max(T) = 299.644, 1044.99
GAMGPCG:  Solving for p_rgh, Initial residual = 0.00677913, Final residual = 8.82289e-07, No Iterations 3
diagonal:  Solving for rho, Initial residual = 0, Final residual = 0, No Iterations 0
time step continuity errors : sum local = 4.61145e-08, global = 1.45528e-08, cumulative = 3.77825e-07
GAMGPCG:  Solving for p_rgh, Initial residual = 0.00132985, Final residual = 7.63402e-07, No Iterations 2
diagonal:  Solving for rho, Initial residual = 0, Final residual = 0, No Iterations 0
time step continuity errors : sum local = 3.50094e-08, global = 9.47176e-09, cumulative = 3.87297e-07
DILUPBiCGStab:  Solving for omega, Initial residual = 1.67738e-05, Final residual = 1.39207e-09, No Iterations 2
DILUPBiCGStab:  Solving for k, Initial residual = 0.000367076, Final residual = 2.27852e-09, No Iterations 2

ExecutionTime = 263.86 s  ClockTime = 264 s

    Overall     = 0.00129817, 0.01
Time = 2491

diagonal:  Solving for rho, Initial residual = 0, Final residual = 0, No Iterations 0

Execution time for mesh.update() = 0 s

DILUPBiCGStab:  Solving for Ux, Initial residual = 0.000934896, Final residual = 8.57287e-09, No Iterations 2
DILUPBiCGStab:  Solving for Uy, Initial residual = 0.00100091, Final residual = 1.11393e-09, No Iterations 3
DILUPBiCGStab:  Solving for O2, Initial residual = 0.000206403, Final residual = 1.67163e-10, No Iterations 3
DILUPBiCGStab:  Solving for H2O, Initial residual = 0.000206701, Final residual = 1.67097e-10, No Iterations 3
DILUPBiCGStab:  Solving for CH4, Initial residual = 0, Final residual = 0, No Iterations 0
DILUPBiCGStab:  Solving for CO2, Initial residual = 0.000206701, Final residual = 1.67097e-10, No Iterations 3
DILUPBiCGStab:  Solving for h, Initial residual = 0.000298604, Final residual = 4.58917e-09, No Iterations 2
min/max(T) = 299.639, 1044.99
GAMGPCG:  Solving for p_rgh, Initial residual = 0.00715689, Final residual = 1.56791e-07, No Iterations 4
diagonal:  Solving for rho, Initial residual = 0, Final residual = 0, No Iterations 0
time step continuity errors : sum local = 8.06172e-09, global = -5.31654e-10, cumulative = 3.86766e-07
GAMGPCG:  Solving for p_rgh, Initial residual = 0.00115448, Final residual = 8.34427e-07, No Iterations 2
diagonal:  Solving for rho, Initial residual = 0, Final residual = 0, No Iterations 0
time step continuity errors : sum local = 3.90167e-08, global = 6.26739e-10, cumulative = 3.87392e-07
DILUPBiCGStab:  Solving for omega, Initial residual = 1.67024e-05, Final residual = 1.44989e-09, No Iterations 2
DILUPBiCGStab:  Solving for k, Initial residual = 0.000367128, Final residual = 2.16926e-09, No Iterations 2

ExecutionTime = 263.97 s  ClockTime = 264 s

    Overall     = 0.00129646, 0.01
Time = 2492

diagonal:  Solving for rho, Initial residual = 0, Final residual = 0, No Iterations 0

Execution time for mesh.update() = 0 s

DILUPBiCGStab:  Solving for Ux, Initial residual = 0.000950072, Final residual = 9.18303e-09, No Iterations 2
DILUPBiCGStab:  Solving for Uy, Initial residual = 0.000998438, Final residual = 6.78974e-09, No Iterations 2
DILUPBiCGStab:  Solving for O2, Initial residual = 0.000196966, Final residual = 1.98824e-09, No Iterations 2
DILUPBiCGStab:  Solving for H2O, Initial residual = 0.000197158, Final residual = 1.99647e-09, No Iterations 2
DILUPBiCGStab:  Solving for CH4, Initial residual = 0, Final residual = 0, No Iterations 0
DILUPBiCGStab:  Solving for CO2, Initial residual = 0.000197158, Final residual = 1.99647e-09, No Iterations 2
DILUPBiCGStab:  Solving for h, Initial residual = 0.000283979, Final residual = 2.06795e-09, No Iterations 2
min/max(T) = 299.632, 1044.99
GAMGPCG:  Solving for p_rgh, Initial residual = 0.00688496, Final residual = 8.40705e-07, No Iterations 3
diagonal:  Solving for rho, Initial residual = 0, Final residual = 0, No Iterations 0
time step continuity errors : sum local = 4.4091e-08, global = 1.58967e-08, cumulative = 4.03289e-07
GAMGPCG:  Solving for p_rgh, Initial residual = 0.0012179, Final residual = 7.24062e-07, No Iterations 2
diagonal:  Solving for rho, Initial residual = 0, Final residual = 0, No Iterations 0
time step continuity errors : sum local = 3.49162e-08, global = 8.48554e-09, cumulative = 4.11774e-07
DILUPBiCGStab:  Solving for omega, Initial residual = 1.56581e-05, Final residual = 1.56114e-09, No Iterations 2
DILUPBiCGStab:  Solving for k, Initial residual = 0.000368478, Final residual = 2.50089e-09, No Iterations 2

ExecutionTime = 264.07 s  ClockTime = 264 s

    Overall     = 0.00129783, 0.01
Time = 2493

diagonal:  Solving for rho, Initial residual = 0, Final residual = 0, No Iterations 0

Execution time for mesh.update() = 0 s

DILUPBiCGStab:  Solving for Ux, Initial residual = 0.000916103, Final residual = 1.60113e-09, No Iterations 3
DILUPBiCGStab:  Solving for Uy, Initial residual = 0.0009795, Final residual = 7.33654e-09, No Iterations 2
DILUPBiCGStab:  Solving for O2, Initial residual = 0.000202008, Final residual = 1.8493e-09, No Iterations 2
DILUPBiCGStab:  Solving for H2O, Initial residual = 0.00020232, Final residual = 1.84955e-09, No Iterations 2
DILUPBiCGStab:  Solving for CH4, Initial residual = 0, Final residual = 0, No Iterations 0
DILUPBiCGStab:  Solving for CO2, Initial residual = 0.00020232, Final residual = 1.84955e-09, No Iterations 2
DILUPBiCGStab:  Solving for h, Initial residual = 0.000292507, Final residual = 1.90241e-09, No Iterations 2
min/max(T) = 299.621, 1044.99
GAMGPCG:  Solving for p_rgh, Initial residual = 0.00723902, Final residual = 9.03038e-07, No Iterations 3
diagonal:  Solving for rho, Initial residual = 0, Final residual = 0, No Iterations 0
time step continuity errors : sum local = 4.74997e-08, global = -1.11643e-08, cumulative = 4.0061e-07
GAMGPCG:  Solving for p_rgh, Initial residual = 0.00113922, Final residual = 7.39155e-07, No Iterations 2
diagonal:  Solving for rho, Initial residual = 0, Final residual = 0, No Iterations 0
time step continuity errors : sum local = 3.40919e-08, global = -1.36342e-09, cumulative = 3.99247e-07
DILUPBiCGStab:  Solving for omega, Initial residual = 1.61359e-05, Final residual = 1.69356e-09, No Iterations 2
DILUPBiCGStab:  Solving for k, Initial residual = 0.000367058, Final residual = 2.51748e-09, No Iterations 2

ExecutionTime = 264.17 s  ClockTime = 265 s

    Overall     = 0.0012955, 0.01
Time = 2494

diagonal:  Solving for rho, Initial residual = 0, Final residual = 0, No Iterations 0

Execution time for mesh.update() = 0 s

DILUPBiCGStab:  Solving for Ux, Initial residual = 0.000948256, Final residual = 2.205e-09, No Iterations 3
DILUPBiCGStab:  Solving for Uy, Initial residual = 0.000994033, Final residual = 1.26663e-09, No Iterations 3
DILUPBiCGStab:  Solving for O2, Initial residual = 0.000202102, Final residual = 1.85014e-09, No Iterations 2
DILUPBiCGStab:  Solving for H2O, Initial residual = 0.00020212, Final residual = 1.85018e-09, No Iterations 2
DILUPBiCGStab:  Solving for CH4, Initial residual = 0, Final residual = 0, No Iterations 0
DILUPBiCGStab:  Solving for CO2, Initial residual = 0.00020212, Final residual = 1.85018e-09, No Iterations 2
DILUPBiCGStab:  Solving for h, Initial residual = 0.000292079, Final residual = 2.14444e-09, No Iterations 2
min/max(T) = 299.626, 1044.99
GAMGPCG:  Solving for p_rgh, Initial residual = 0.00672511, Final residual = 8.97359e-07, No Iterations 3
diagonal:  Solving for rho, Initial residual = 0, Final residual = 0, No Iterations 0
time step continuity errors : sum local = 4.54363e-08, global = 1.4802e-08, cumulative = 4.14049e-07
GAMGPCG:  Solving for p_rgh, Initial residual = 0.00117861, Final residual = 7.62219e-07, No Iterations 2
diagonal:  Solving for rho, Initial residual = 0, Final residual = 0, No Iterations 0
time step continuity errors : sum local = 3.49561e-08, global = 8.99856e-09, cumulative = 4.23047e-07
DILUPBiCGStab:  Solving for omega, Initial residual = 1.61863e-05, Final residual = 1.6974e-09, No Iterations 2
DILUPBiCGStab:  Solving for k, Initial residual = 0.000373249, Final residual = 2.41887e-09, No Iterations 2

ExecutionTime = 264.28 s  ClockTime = 265 s

    Overall     = 0.00129634, 0.01
Time = 2495

diagonal:  Solving for rho, Initial residual = 0, Final residual = 0, No Iterations 0

Execution time for mesh.update() = 0 s

DILUPBiCGStab:  Solving for Ux, Initial residual = 0.000935247, Final residual = 1.95629e-09, No Iterations 3
DILUPBiCGStab:  Solving for Uy, Initial residual = 0.000981209, Final residual = 7.75761e-09, No Iterations 2
DILUPBiCGStab:  Solving for O2, Initial residual = 0.000198022, Final residual = 1.38817e-10, No Iterations 3
DILUPBiCGStab:  Solving for H2O, Initial residual = 0.000198334, Final residual = 1.38703e-10, No Iterations 3
DILUPBiCGStab:  Solving for CH4, Initial residual = 0, Final residual = 0, No Iterations 0
DILUPBiCGStab:  Solving for CO2, Initial residual = 0.000198334, Final residual = 1.38703e-10, No Iterations 3
DILUPBiCGStab:  Solving for h, Initial residual = 0.000285282, Final residual = 3.14698e-09, No Iterations 2
min/max(T) = 299.625, 1044.99
GAMGPCG:  Solving for p_rgh, Initial residual = 0.00699344, Final residual = 8.99527e-07, No Iterations 3
diagonal:  Solving for rho, Initial residual = 0, Final residual = 0, No Iterations 0
time step continuity errors : sum local = 4.69466e-08, global = -1.19459e-08, cumulative = 4.11101e-07
GAMGPCG:  Solving for p_rgh, Initial residual = 0.00115632, Final residual = 6.12296e-07, No Iterations 2
diagonal:  Solving for rho, Initial residual = 0, Final residual = 0, No Iterations 0
time step continuity errors : sum local = 2.99647e-08, global = 9.63289e-10, cumulative = 4.12065e-07
DILUPBiCGStab:  Solving for omega, Initial residual = 1.54775e-05, Final residual = 1.80047e-09, No Iterations 2
DILUPBiCGStab:  Solving for k, Initial residual = 0.000367351, Final residual = 2.60218e-09, No Iterations 2

ExecutionTime = 264.38 s  ClockTime = 265 s

    Overall     = 0.00129456, 0.01
Time = 2496

diagonal:  Solving for rho, Initial residual = 0, Final residual = 0, No Iterations 0

Execution time for mesh.update() = 0 s

DILUPBiCGStab:  Solving for Ux, Initial residual = 0.000923479, Final residual = 9.5238e-09, No Iterations 2
DILUPBiCGStab:  Solving for Uy, Initial residual = 0.000980012, Final residual = 7.35234e-09, No Iterations 2
DILUPBiCGStab:  Solving for O2, Initial residual = 0.000194734, Final residual = 3.74381e-09, No Iterations 2
DILUPBiCGStab:  Solving for H2O, Initial residual = 0.000194747, Final residual = 3.67383e-09, No Iterations 2
DILUPBiCGStab:  Solving for CH4, Initial residual = 0, Final residual = 0, No Iterations 0
DILUPBiCGStab:  Solving for CO2, Initial residual = 0.000194747, Final residual = 3.67383e-09, No Iterations 2
DILUPBiCGStab:  Solving for h, Initial residual = 0.000281605, Final residual = 1.87522e-09, No Iterations 2
min/max(T) = 299.637, 1044.99
GAMGPCG:  Solving for p_rgh, Initial residual = 0.00695611, Final residual = 7.59476e-07, No Iterations 3
diagonal:  Solving for rho, Initial residual = 0, Final residual = 0, No Iterations 0
time step continuity errors : sum local = 3.97089e-08, global = 1.27171e-08, cumulative = 4.24782e-07
GAMGPCG:  Solving for p_rgh, Initial residual = 0.00117808, Final residual = 5.62642e-07, No Iterations 2
diagonal:  Solving for rho, Initial residual = 0, Final residual = 0, No Iterations 0
time step continuity errors : sum local = 2.83751e-08, global = 1.10889e-08, cumulative = 4.35871e-07
DILUPBiCGStab:  Solving for omega, Initial residual = 1.62006e-05, Final residual = 1.53628e-09, No Iterations 2
DILUPBiCGStab:  Solving for k, Initial residual = 0.000368476, Final residual = 2.4876e-09, No Iterations 2

ExecutionTime = 264.48 s  ClockTime = 265 s

    Overall     = 0.00129674, 0.01
Time = 2497

diagonal:  Solving for rho, Initial residual = 0, Final residual = 0, No Iterations 0

Execution time for mesh.update() = 0 s

DILUPBiCGStab:  Solving for Ux, Initial residual = 0.00096811, Final residual = 1.75503e-09, No Iterations 3
DILUPBiCGStab:  Solving for Uy, Initial residual = 0.000986619, Final residual = 7.86565e-09, No Iterations 2
DILUPBiCGStab:  Solving for O2, Initial residual = 0.000202039, Final residual = 1.48197e-09, No Iterations 2
DILUPBiCGStab:  Solving for H2O, Initial residual = 0.000202344, Final residual = 1.48209e-09, No Iterations 2
DILUPBiCGStab:  Solving for CH4, Initial residual = 0, Final residual = 0, No Iterations 0
DILUPBiCGStab:  Solving for CO2, Initial residual = 0.000202344, Final residual = 1.48209e-09, No Iterations 2
DILUPBiCGStab:  Solving for h, Initial residual = 0.000294583, Final residual = 1.60579e-09, No Iterations 2
min/max(T) = 299.642, 1044.99
GAMGPCG:  Solving for p_rgh, Initial residual = 0.00732874, Final residual = 7.77179e-07, No Iterations 3
diagonal:  Solving for rho, Initial residual = 0, Final residual = 0, No Iterations 0
time step continuity errors : sum local = 4.09463e-08, global = -1.37201e-08, cumulative = 4.22151e-07
GAMGPCG:  Solving for p_rgh, Initial residual = 0.00122256, Final residual = 6.37704e-07, No Iterations 2
diagonal:  Solving for rho, Initial residual = 0, Final residual = 0, No Iterations 0
time step continuity errors : sum local = 3.06079e-08, global = -1.0222e-10, cumulative = 4.22048e-07
DILUPBiCGStab:  Solving for omega, Initial residual = 1.6683e-05, Final residual = 2.55875e-09, No Iterations 2
DILUPBiCGStab:  Solving for k, Initial residual = 0.00036903, Final residual = 2.73818e-09, No Iterations 2

ExecutionTime = 264.59 s  ClockTime = 265 s

    Overall     = 0.00129517, 0.01
Time = 2498

diagonal:  Solving for rho, Initial residual = 0, Final residual = 0, No Iterations 0

Execution time for mesh.update() = 0 s

DILUPBiCGStab:  Solving for Ux, Initial residual = 0.000963474, Final residual = 9.69892e-09, No Iterations 2
DILUPBiCGStab:  Solving for Uy, Initial residual = 0.000993455, Final residual = 1.45303e-09, No Iterations 3
DILUPBiCGStab:  Solving for O2, Initial residual = 0.00019885, Final residual = 1.64715e-09, No Iterations 2
DILUPBiCGStab:  Solving for H2O, Initial residual = 0.000198868, Final residual = 1.64714e-09, No Iterations 2
DILUPBiCGStab:  Solving for CH4, Initial residual = 0, Final residual = 0, No Iterations 0
DILUPBiCGStab:  Solving for CO2, Initial residual = 0.000198868, Final residual = 1.64714e-09, No Iterations 2
DILUPBiCGStab:  Solving for h, Initial residual = 0.000289293, Final residual = 1.84413e-09, No Iterations 2
min/max(T) = 299.647, 1044.99
GAMGPCG:  Solving for p_rgh, Initial residual = 0.00666488, Final residual = 6.38661e-07, No Iterations 3
diagonal:  Solving for rho, Initial residual = 0, Final residual = 0, No Iterations 0
time step continuity errors : sum local = 3.30845e-08, global = 7.22533e-09, cumulative = 4.29274e-07
GAMGPCG:  Solving for p_rgh, Initial residual = 0.00125645, Final residual = 6.80245e-07, No Iterations 2
diagonal:  Solving for rho, Initial residual = 0, Final residual = 0, No Iterations 0
time step continuity errors : sum local = 3.16339e-08, global = 1.14407e-08, cumulative = 4.40714e-07
DILUPBiCGStab:  Solving for omega, Initial residual = 1.69743e-05, Final residual = 2.13174e-09, No Iterations 2
DILUPBiCGStab:  Solving for k, Initial residual = 0.000369253, Final residual = 2.50286e-09, No Iterations 2

ExecutionTime = 264.68 s  ClockTime = 265 s

    Overall     = 0.00129652, 0.01
Time = 2499

diagonal:  Solving for rho, Initial residual = 0, Final residual = 0, No Iterations 0

Execution time for mesh.update() = 0 s

DILUPBiCGStab:  Solving for Ux, Initial residual = 0.00091093, Final residual = 7.86864e-10, No Iterations 3
DILUPBiCGStab:  Solving for Uy, Initial residual = 0.00097481, Final residual = 2.70404e-09, No Iterations 3
DILUPBiCGStab:  Solving for O2, Initial residual = 0.000197896, Final residual = 2.53768e-09, No Iterations 2
DILUPBiCGStab:  Solving for H2O, Initial residual = 0.00019819, Final residual = 2.54332e-09, No Iterations 2
DILUPBiCGStab:  Solving for CH4, Initial residual = 0, Final residual = 0, No Iterations 0
DILUPBiCGStab:  Solving for CO2, Initial residual = 0.00019819, Final residual = 2.54332e-09, No Iterations 2
DILUPBiCGStab:  Solving for h, Initial residual = 0.000292033, Final residual = 2.02948e-09, No Iterations 2
min/max(T) = 299.643, 1044.99
GAMGPCG:  Solving for p_rgh, Initial residual = 0.00705092, Final residual = 9.08546e-07, No Iterations 3
diagonal:  Solving for rho, Initial residual = 0, Final residual = 0, No Iterations 0
time step continuity errors : sum local = 4.79305e-08, global = -1.86945e-08, cumulative = 4.2202e-07
GAMGPCG:  Solving for p_rgh, Initial residual = 0.00114195, Final residual = 6.23148e-07, No Iterations 2
diagonal:  Solving for rho, Initial residual = 0, Final residual = 0, No Iterations 0
time step continuity errors : sum local = 3.0513e-08, global = 8.29987e-10, cumulative = 4.2285e-07
DILUPBiCGStab:  Solving for omega, Initial residual = 1.7414e-05, Final residual = 1.81058e-09, No Iterations 2
DILUPBiCGStab:  Solving for k, Initial residual = 0.000369581, Final residual = 2.78004e-09, No Iterations 2

ExecutionTime = 264.79 s  ClockTime = 265 s

    Overall     = 0.00129484, 0.01
Time = 2500

diagonal:  Solving for rho, Initial residual = 0, Final residual = 0, No Iterations 0

Execution time for mesh.update() = 0 s

DILUPBiCGStab:  Solving for Ux, Initial residual = 0.000957902, Final residual = 1.08929e-09, No Iterations 3
DILUPBiCGStab:  Solving for Uy, Initial residual = 0.000994266, Final residual = 7.26589e-09, No Iterations 2
GAMGPCG:  Solving for G, Initial residual = 0.0164751, Final residual = 9.63278e-05, No Iterations 3
DILUPBiCGStab:  Solving for O2, Initial residual = 0.000194548, Final residual = 1.94368e-09, No Iterations 2
DILUPBiCGStab:  Solving for H2O, Initial residual = 0.000194619, Final residual = 1.94295e-09, No Iterations 2
DILUPBiCGStab:  Solving for CH4, Initial residual = 0, Final residual = 0, No Iterations 0
DILUPBiCGStab:  Solving for CO2, Initial residual = 0.000194619, Final residual = 1.94295e-09, No Iterations 2
DILUPBiCGStab:  Solving for h, Initial residual = 0.00027999, Final residual = 2.06346e-09, No Iterations 2
min/max(T) = 299.635, 1044.99
GAMGPCG:  Solving for p_rgh, Initial residual = 0.00724652, Final residual = 7.58075e-07, No Iterations 3
diagonal:  Solving for rho, Initial residual = 0, Final residual = 0, No Iterations 0
time step continuity errors : sum local = 3.96486e-08, global = 7.51346e-09, cumulative = 4.30363e-07
GAMGPCG:  Solving for p_rgh, Initial residual = 0.00121671, Final residual = 6.27746e-07, No Iterations 2
diagonal:  Solving for rho, Initial residual = 0, Final residual = 0, No Iterations 0
time step continuity errors : sum local = 3.00284e-08, global = 7.86426e-09, cumulative = 4.38228e-07
DILUPBiCGStab:  Solving for omega, Initial residual = 1.6079e-05, Final residual = 1.69329e-09, No Iterations 2
DILUPBiCGStab:  Solving for k, Initial residual = 0.000372171, Final residual = 2.94252e-09, No Iterations 2

ExecutionTime = 265.02 s  ClockTime = 265 s


Patch Mean : 304.554
Patch Variance : 0.544207
Patch Gradient : 0.318816
End
