/*---------------------------------------------------------------------------*\
  =========                 |
  \\      /  F ield         | OpenFOAM: The Open Source CFD Toolbox
   \\    /   O peration     | Website:  https://openfoam.org
    \\  /    A nd           | Version:  dev
     \\/     M anipulation  |
\*---------------------------------------------------------------------------*/
Build  : dev-cabe48fb62c1
Exec   : fireDyMFoam
Date   : Apr 15 2019
Time   : 13:00:30
Host   : "Host"
PID    : 2948
I/O    : uncollated
Case   : /home/tesla/OpenFOAM/tesla-dev/run/rollerOpt_COBYLA_NEW
nProcs : 1
sigFpe : Enabling floating point exception trapping (FOAM_SIGFPE).
fileModificationChecking : Monitoring run-time modified files using timeStampMaster (fileModificationSkew 10)
allowSystemOperations : Allowing user-supplied system call operations

// * * * * * * * * * * * * * * * * * * * * * * * * * * * * * * * * * * * * * //
Create time

--> FOAM Warning : 
    From function void* Foam::dlOpen(const Foam::fileName&, bool)
    in file POSIX.C at line 1268
    dlopen error : libgroovyBC.so: cannot open shared object file: No such file or directory
--> FOAM Warning : 
    From function bool Foam::dlLibraryTable::open(const Foam::fileName&, bool)
    in file db/dynamicLibrary/dlLibraryTable/dlLibraryTable.C at line 105
    could not load "libgroovyBC.so"
Create mesh for time = 250

Selecting dynamicFvMesh dynamicRefineFvMesh
Detected 542 cells that are protected from refinement. Writing these to cellSet protectedCells.

PIMPLE: No convergence criteria found


PIMPLE: Operating solver in PISO mode


Initializing Solver

Selecting thermodynamics package 
{
    type            hePsiThermo;
    mixture         reactingMixture;
    transport       sutherland;
    thermo          janaf;
    energy          sensibleEnthalpy;
    equationOfState perfectGas;
    specie          specie;
}

Selecting chemistryReader foamChemistryReader
    elements not defined in "/home/tesla/OpenFOAM/tesla-dev/run/rollerOpt_COBYLA_NEW/constant/reactions"
Reading/calculating face flux field phi

No MRF models present

Selecting turbulence model type RAS
Selecting RAS turbulence model kOmegaSST
Selecting patchDistMethod meshWave
kOmegaSSTCoeffs
{
    delta           cubeRootVol;
    cubeRootVolCoeffs
    {
        deltaCoeff      1;
    }
    alphaK1         0.85;
    alphaK2         1;
    alphaOmega1     0.5;
    alphaOmega2     0.856;
    gamma1          0.555556;
    gamma2          0.44;
    beta1           0.075;
    beta2           0.0828;
    betaStar        0.09;
    a1              0.31;
    b1              1;
    c1              10;
    F3              false;
}

Selecting combustion model none<psiThermoCombustion>
--> FOAM Warning : 
    From function static Foam::autoPtr<T> Foam::combustionModel::New(typename CombustionModel::reactionThermo&, const Foam::compressibleTurbulenceModel&, const Foam::word&) [with CombustionModel = Foam::CombustionModel<Foam::psiReactionThermo>; typename CombustionModel::reactionThermo = Foam::psiReactionThermo]
    in file /home/tesla/OpenFOAM/OpenFOAM-dev/src/combustionModels/lnInclude/combustionModelTemplates.C at line 69
    Template parameters are no longer required when selecting a combustionModel. This information is now obtained directly from the thermodynamics. Actually selecting combustion model none.

Reading g

Reading hRef
Calculating field g.h


Reading pRef
Selecting radiationModel P1
Selecting absorptionEmissionModel greyMeanAbsorptionEmission
Selecting scatterModel none
Selecting sootModel none
Creating finite volume options from "system/fvOptions"

No finite volume options present
Using LTS

Starting time loop

Using dynamicCode for functionObject patchCalcs at line 64 in "/home/tesla/OpenFOAM/tesla-dev/run/rollerOpt_COBYLA_NEW/system/controlDict.functions.patchCalcs"
    Overall     = 0.00154089, 0.01
Time = 251

diagonal:  Solving for rho, Initial residual = 0, Final residual = 0, No Iterations 0

Execution time for mesh.update() = 0 s

DILUPBiCGStab:  Solving for Ux, Initial residual = 0.00554349, Final residual = 5.66529e-09, No Iterations 3
DILUPBiCGStab:  Solving for Uy, Initial residual = 0.00770096, Final residual = 6.76778e-09, No Iterations 3
GAMGPCG:  Solving for G, Initial residual = 0.0325126, Final residual = 3.39972e-05, No Iterations 4
DILUPBiCGStab:  Solving for O2, Initial residual = 0.00342803, Final residual = 3.09659e-09, No Iterations 3
DILUPBiCGStab:  Solving for H2O, Initial residual = 0.00342825, Final residual = 3.09632e-09, No Iterations 3
DILUPBiCGStab:  Solving for CH4, Initial residual = 0, Final residual = 0, No Iterations 0
DILUPBiCGStab:  Solving for CO2, Initial residual = 0.00342825, Final residual = 3.09648e-09, No Iterations 3
DILUPBiCGStab:  Solving for h, Initial residual = 0.00400005, Final residual = 3.29499e-09, No Iterations 3
min/max(T) = 299.473, 1044.97
GAMGPCG:  Solving for p_rgh, Initial residual = 0.0205384, Final residual = 1.33003e-07, No Iterations 5
diagonal:  Solving for rho, Initial residual = 0, Final residual = 0, No Iterations 0
time step continuity errors : sum local = 2.46337e-06, global = -1.28023e-07, cumulative = -1.28023e-07
GAMGPCG:  Solving for p_rgh, Initial residual = 0.00273893, Final residual = 2.25839e-07, No Iterations 4
diagonal:  Solving for rho, Initial residual = 0, Final residual = 0, No Iterations 0
time step continuity errors : sum local = 2.4634e-06, global = -1.26541e-07, cumulative = -2.54564e-07
DILUPBiCGStab:  Solving for omega, Initial residual = 0.000122212, Final residual = 2.2955e-09, No Iterations 2
DILUPBiCGStab:  Solving for k, Initial residual = 0.00622704, Final residual = 6.05445e-09, No Iterations 3

ExecutionTime = 0.38 s  ClockTime = 1 s

    Overall     = 0.00153984, 0.01
Time = 252

diagonal:  Solving for rho, Initial residual = 0, Final residual = 0, No Iterations 0

Execution time for mesh.update() = 0 s

DILUPBiCGStab:  Solving for Ux, Initial residual = 0.00554645, Final residual = 5.81608e-09, No Iterations 3
DILUPBiCGStab:  Solving for Uy, Initial residual = 0.00770325, Final residual = 7.32176e-09, No Iterations 3
DILUPBiCGStab:  Solving for O2, Initial residual = 0.00342097, Final residual = 4.13006e-09, No Iterations 3
DILUPBiCGStab:  Solving for H2O, Initial residual = 0.00342146, Final residual = 4.13025e-09, No Iterations 3
DILUPBiCGStab:  Solving for CH4, Initial residual = 0, Final residual = 0, No Iterations 0
DILUPBiCGStab:  Solving for CO2, Initial residual = 0.00342146, Final residual = 4.1304e-09, No Iterations 3
DILUPBiCGStab:  Solving for h, Initial residual = 0.00399248, Final residual = 4.0004e-09, No Iterations 3
min/max(T) = 299.493, 1044.97
GAMGPCG:  Solving for p_rgh, Initial residual = 0.0199899, Final residual = 8.62412e-07, No Iterations 4
diagonal:  Solving for rho, Initial residual = 0, Final residual = 0, No Iterations 0
time step continuity errors : sum local = 4.50805e-08, global = -3.12912e-09, cumulative = -2.57693e-07
GAMGPCG:  Solving for p_rgh, Initial residual = 0.00266093, Final residual = 1.95688e-07, No Iterations 4
diagonal:  Solving for rho, Initial residual = 0, Final residual = 0, No Iterations 0
time step continuity errors : sum local = 9.93746e-09, global = 7.98008e-10, cumulative = -2.56895e-07
DILUPBiCGStab:  Solving for omega, Initial residual = 0.00012225, Final residual = 2.27363e-09, No Iterations 2
DILUPBiCGStab:  Solving for k, Initial residual = 0.00627639, Final residual = 8.02016e-09, No Iterations 3

ExecutionTime = 0.5 s  ClockTime = 1 s

    Overall     = 0.00153946, 0.01
Time = 253

diagonal:  Solving for rho, Initial residual = 0, Final residual = 0, No Iterations 0

Execution time for mesh.update() = 0 s

DILUPBiCGStab:  Solving for Ux, Initial residual = 0.00555586, Final residual = 5.90394e-09, No Iterations 3
DILUPBiCGStab:  Solving for Uy, Initial residual = 0.0077028, Final residual = 7.68737e-09, No Iterations 3
DILUPBiCGStab:  Solving for O2, Initial residual = 0.00341764, Final residual = 6.64545e-09, No Iterations 3
DILUPBiCGStab:  Solving for H2O, Initial residual = 0.00341808, Final residual = 6.64612e-09, No Iterations 3
DILUPBiCGStab:  Solving for CH4, Initial residual = 0, Final residual = 0, No Iterations 0
DILUPBiCGStab:  Solving for CO2, Initial residual = 0.00341808, Final residual = 6.64592e-09, No Iterations 3
DILUPBiCGStab:  Solving for h, Initial residual = 0.00399246, Final residual = 6.13952e-09, No Iterations 3
min/max(T) = 299.473, 1044.97
GAMGPCG:  Solving for p_rgh, Initial residual = 0.0202331, Final residual = 9.73869e-07, No Iterations 4
diagonal:  Solving for rho, Initial residual = 0, Final residual = 0, No Iterations 0
time step continuity errors : sum local = 5.07188e-08, global = -1.89608e-09, cumulative = -2.58791e-07
GAMGPCG:  Solving for p_rgh, Initial residual = 0.00265235, Final residual = 2.03384e-07, No Iterations 4
diagonal:  Solving for rho, Initial residual = 0, Final residual = 0, No Iterations 0
time step continuity errors : sum local = 1.03717e-08, global = 6.26337e-10, cumulative = -2.58164e-07
DILUPBiCGStab:  Solving for omega, Initial residual = 0.000122401, Final residual = 2.26702e-09, No Iterations 2
DILUPBiCGStab:  Solving for k, Initial residual = 0.00631883, Final residual = 9.30676e-09, No Iterations 3

ExecutionTime = 0.62 s  ClockTime = 1 s

    Overall     = 0.00153745, 0.01
Time = 254

diagonal:  Solving for rho, Initial residual = 0, Final residual = 0, No Iterations 0

Execution time for mesh.update() = 0 s

DILUPBiCGStab:  Solving for Ux, Initial residual = 0.00556291, Final residual = 6.11468e-09, No Iterations 3
DILUPBiCGStab:  Solving for Uy, Initial residual = 0.00774484, Final residual = 9.03754e-09, No Iterations 3
DILUPBiCGStab:  Solving for O2, Initial residual = 0.00341523, Final residual = 4.31661e-09, No Iterations 3
DILUPBiCGStab:  Solving for H2O, Initial residual = 0.00341572, Final residual = 4.31637e-09, No Iterations 3
DILUPBiCGStab:  Solving for CH4, Initial residual = 0, Final residual = 0, No Iterations 0
DILUPBiCGStab:  Solving for CO2, Initial residual = 0.00341571, Final residual = 4.31631e-09, No Iterations 3
DILUPBiCGStab:  Solving for h, Initial residual = 0.00398685, Final residual = 4.95442e-09, No Iterations 3
min/max(T) = 299.491, 1044.97
GAMGPCG:  Solving for p_rgh, Initial residual = 0.020619, Final residual = 8.22006e-07, No Iterations 4
diagonal:  Solving for rho, Initial residual = 0, Final residual = 0, No Iterations 0
time step continuity errors : sum local = 4.26669e-08, global = -1.61861e-09, cumulative = -2.59783e-07
GAMGPCG:  Solving for p_rgh, Initial residual = 0.00262638, Final residual = 1.84559e-07, No Iterations 4
diagonal:  Solving for rho, Initial residual = 0, Final residual = 0, No Iterations 0
time step continuity errors : sum local = 9.38497e-09, global = 5.11107e-10, cumulative = -2.59272e-07
DILUPBiCGStab:  Solving for omega, Initial residual = 0.000121807, Final residual = 2.12321e-09, No Iterations 2
DILUPBiCGStab:  Solving for k, Initial residual = 0.00637034, Final residual = 1.56723e-09, No Iterations 3

ExecutionTime = 0.73 s  ClockTime = 1 s

    Overall     = 0.00153643, 0.01
Time = 255

diagonal:  Solving for rho, Initial residual = 0, Final residual = 0, No Iterations 0

Execution time for mesh.update() = 0 s

DILUPBiCGStab:  Solving for Ux, Initial residual = 0.00556698, Final residual = 7.45594e-09, No Iterations 3
DILUPBiCGStab:  Solving for Uy, Initial residual = 0.00774533, Final residual = 9.20988e-09, No Iterations 3
DILUPBiCGStab:  Solving for O2, Initial residual = 0.00340438, Final residual = 3.61917e-09, No Iterations 3
DILUPBiCGStab:  Solving for H2O, Initial residual = 0.00340482, Final residual = 3.61892e-09, No Iterations 3
DILUPBiCGStab:  Solving for CH4, Initial residual = 0, Final residual = 0, No Iterations 0
DILUPBiCGStab:  Solving for CO2, Initial residual = 0.00340482, Final residual = 3.61891e-09, No Iterations 3
DILUPBiCGStab:  Solving for h, Initial residual = 0.0039782, Final residual = 5.94796e-09, No Iterations 3
min/max(T) = 299.471, 1044.97
GAMGPCG:  Solving for p_rgh, Initial residual = 0.0201667, Final residual = 9.30763e-07, No Iterations 4
diagonal:  Solving for rho, Initial residual = 0, Final residual = 0, No Iterations 0
time step continuity errors : sum local = 4.86175e-08, global = -1.82137e-09, cumulative = -2.61093e-07
GAMGPCG:  Solving for p_rgh, Initial residual = 0.00268404, Final residual = 1.83134e-07, No Iterations 4
diagonal:  Solving for rho, Initial residual = 0, Final residual = 0, No Iterations 0
time step continuity errors : sum local = 9.33638e-09, global = 4.44899e-10, cumulative = -2.60648e-07
DILUPBiCGStab:  Solving for omega, Initial residual = 0.000120708, Final residual = 2.06115e-09, No Iterations 2
DILUPBiCGStab:  Solving for k, Initial residual = 0.00642854, Final residual = 6.95105e-09, No Iterations 3

ExecutionTime = 0.85 s  ClockTime = 1 s

    Overall     = 0.00153363, 0.01
Time = 256

diagonal:  Solving for rho, Initial residual = 0, Final residual = 0, No Iterations 0

Execution time for mesh.update() = 0 s

DILUPBiCGStab:  Solving for Ux, Initial residual = 0.00556861, Final residual = 6.96262e-09, No Iterations 3
DILUPBiCGStab:  Solving for Uy, Initial residual = 0.00776507, Final residual = 9.97954e-10, No Iterations 3
DILUPBiCGStab:  Solving for O2, Initial residual = 0.00339429, Final residual = 2.48917e-09, No Iterations 3
DILUPBiCGStab:  Solving for H2O, Initial residual = 0.00339478, Final residual = 2.48912e-09, No Iterations 3
DILUPBiCGStab:  Solving for CH4, Initial residual = 0, Final residual = 0, No Iterations 0
DILUPBiCGStab:  Solving for CO2, Initial residual = 0.00339478, Final residual = 2.48913e-09, No Iterations 3
DILUPBiCGStab:  Solving for h, Initial residual = 0.00396749, Final residual = 2.80636e-09, No Iterations 3
min/max(T) = 299.488, 1044.97
GAMGPCG:  Solving for p_rgh, Initial residual = 0.0205669, Final residual = 7.90916e-07, No Iterations 4
diagonal:  Solving for rho, Initial residual = 0, Final residual = 0, No Iterations 0
time step continuity errors : sum local = 4.05638e-08, global = -1.64817e-09, cumulative = -2.62297e-07
GAMGPCG:  Solving for p_rgh, Initial residual = 0.00263588, Final residual = 1.5292e-07, No Iterations 4
diagonal:  Solving for rho, Initial residual = 0, Final residual = 0, No Iterations 0
time step continuity errors : sum local = 7.77242e-09, global = 4.71436e-10, cumulative = -2.61825e-07
DILUPBiCGStab:  Solving for omega, Initial residual = 0.000121001, Final residual = 2.05464e-09, No Iterations 2
DILUPBiCGStab:  Solving for k, Initial residual = 0.0064771, Final residual = 3.41548e-11, No Iterations 4

ExecutionTime = 0.96 s  ClockTime = 1 s

    Overall     = 0.00153199, 0.01
Time = 257

diagonal:  Solving for rho, Initial residual = 0, Final residual = 0, No Iterations 0

Execution time for mesh.update() = 0 s

DILUPBiCGStab:  Solving for Ux, Initial residual = 0.00556334, Final residual = 6.84324e-09, No Iterations 3
DILUPBiCGStab:  Solving for Uy, Initial residual = 0.0077521, Final residual = 1.10847e-09, No Iterations 3
DILUPBiCGStab:  Solving for O2, Initial residual = 0.00338523, Final residual = 2.41177e-09, No Iterations 3
DILUPBiCGStab:  Solving for H2O, Initial residual = 0.00338567, Final residual = 2.41177e-09, No Iterations 3
DILUPBiCGStab:  Solving for CH4, Initial residual = 0, Final residual = 0, No Iterations 0
DILUPBiCGStab:  Solving for CO2, Initial residual = 0.00338567, Final residual = 2.41178e-09, No Iterations 3
DILUPBiCGStab:  Solving for h, Initial residual = 0.0039618, Final residual = 2.48569e-09, No Iterations 3
min/max(T) = 299.469, 1044.97
GAMGPCG:  Solving for p_rgh, Initial residual = 0.0199506, Final residual = 8.45943e-07, No Iterations 4
diagonal:  Solving for rho, Initial residual = 0, Final residual = 0, No Iterations 0
time step continuity errors : sum local = 4.43251e-08, global = -1.99749e-09, cumulative = -2.63823e-07
GAMGPCG:  Solving for p_rgh, Initial residual = 0.00259995, Final residual = 1.65769e-07, No Iterations 4
diagonal:  Solving for rho, Initial residual = 0, Final residual = 0, No Iterations 0
time step continuity errors : sum local = 8.6108e-09, global = 3.76088e-10, cumulative = -2.63447e-07
DILUPBiCGStab:  Solving for omega, Initial residual = 0.000121192, Final residual = 2.00398e-09, No Iterations 2
DILUPBiCGStab:  Solving for k, Initial residual = 0.00652354, Final residual = 3.59745e-09, No Iterations 3

ExecutionTime = 1.08 s  ClockTime = 1 s

    Overall     = 0.0015286, 0.01
Time = 258

diagonal:  Solving for rho, Initial residual = 0, Final residual = 0, No Iterations 0

Execution time for mesh.update() = 0 s

DILUPBiCGStab:  Solving for Ux, Initial residual = 0.00558037, Final residual = 8.12701e-09, No Iterations 3
DILUPBiCGStab:  Solving for Uy, Initial residual = 0.0077609, Final residual = 1.12401e-09, No Iterations 3
DILUPBiCGStab:  Solving for O2, Initial residual = 0.00337843, Final residual = 2.46768e-09, No Iterations 3
DILUPBiCGStab:  Solving for H2O, Initial residual = 0.00337892, Final residual = 2.4677e-09, No Iterations 3
DILUPBiCGStab:  Solving for CH4, Initial residual = 0, Final residual = 0, No Iterations 0
DILUPBiCGStab:  Solving for CO2, Initial residual = 0.00337892, Final residual = 2.46771e-09, No Iterations 3
DILUPBiCGStab:  Solving for h, Initial residual = 0.00395716, Final residual = 2.46221e-09, No Iterations 3
min/max(T) = 299.485, 1044.97
GAMGPCG:  Solving for p_rgh, Initial residual = 0.0207832, Final residual = 7.42837e-07, No Iterations 4
diagonal:  Solving for rho, Initial residual = 0, Final residual = 0, No Iterations 0
time step continuity errors : sum local = 3.81279e-08, global = -2.42881e-09, cumulative = -2.65875e-07
GAMGPCG:  Solving for p_rgh, Initial residual = 0.00271746, Final residual = 1.40726e-07, No Iterations 4
diagonal:  Solving for rho, Initial residual = 0, Final residual = 0, No Iterations 0
time step continuity errors : sum local = 7.31726e-09, global = 2.753e-10, cumulative = -2.656e-07
DILUPBiCGStab:  Solving for omega, Initial residual = 0.000120464, Final residual = 2.00811e-09, No Iterations 2
DILUPBiCGStab:  Solving for k, Initial residual = 0.00656061, Final residual = 9.30588e-09, No Iterations 3

ExecutionTime = 1.19 s  ClockTime = 1 s

    Overall     = 0.00152598, 0.01
Time = 259

diagonal:  Solving for rho, Initial residual = 0, Final residual = 0, No Iterations 0

Execution time for mesh.update() = 0 s

DILUPBiCGStab:  Solving for Ux, Initial residual = 0.00559348, Final residual = 7.52449e-09, No Iterations 3
DILUPBiCGStab:  Solving for Uy, Initial residual = 0.00778745, Final residual = 1.23417e-09, No Iterations 3
DILUPBiCGStab:  Solving for O2, Initial residual = 0.00336812, Final residual = 2.49482e-09, No Iterations 3
DILUPBiCGStab:  Solving for H2O, Initial residual = 0.0033686, Final residual = 2.49484e-09, No Iterations 3
DILUPBiCGStab:  Solving for CH4, Initial residual = 0, Final residual = 0, No Iterations 0
DILUPBiCGStab:  Solving for CO2, Initial residual = 0.0033686, Final residual = 2.49484e-09, No Iterations 3
DILUPBiCGStab:  Solving for h, Initial residual = 0.00394956, Final residual = 2.42424e-09, No Iterations 3
min/max(T) = 299.465, 1044.97
GAMGPCG:  Solving for p_rgh, Initial residual = 0.0205863, Final residual = 8.02553e-07, No Iterations 4
diagonal:  Solving for rho, Initial residual = 0, Final residual = 0, No Iterations 0
time step continuity errors : sum local = 4.19182e-08, global = -2.90661e-09, cumulative = -2.68507e-07
GAMGPCG:  Solving for p_rgh, Initial residual = 0.0026466, Final residual = 1.68747e-07, No Iterations 4
diagonal:  Solving for rho, Initial residual = 0, Final residual = 0, No Iterations 0
time step continuity errors : sum local = 8.81946e-09, global = 2.33904e-10, cumulative = -2.68273e-07
DILUPBiCGStab:  Solving for omega, Initial residual = 0.000121532, Final residual = 2.02769e-09, No Iterations 2
DILUPBiCGStab:  Solving for k, Initial residual = 0.0065987, Final residual = 3.45229e-09, No Iterations 3

ExecutionTime = 1.31 s  ClockTime = 2 s

    Overall     = 0.00152148, 0.01
Time = 260

diagonal:  Solving for rho, Initial residual = 0, Final residual = 0, No Iterations 0

Execution time for mesh.update() = 0 s

DILUPBiCGStab:  Solving for Ux, Initial residual = 0.00560149, Final residual = 7.08349e-09, No Iterations 3
DILUPBiCGStab:  Solving for Uy, Initial residual = 0.00780039, Final residual = 1.15914e-09, No Iterations 3
GAMGPCG:  Solving for G, Initial residual = 0.136132, Final residual = 7.97656e-05, No Iterations 5
DILUPBiCGStab:  Solving for O2, Initial residual = 0.00336036, Final residual = 2.73614e-09, No Iterations 3
DILUPBiCGStab:  Solving for H2O, Initial residual = 0.00336087, Final residual = 2.73614e-09, No Iterations 3
DILUPBiCGStab:  Solving for CH4, Initial residual = 0, Final residual = 0, No Iterations 0
DILUPBiCGStab:  Solving for CO2, Initial residual = 0.00336087, Final residual = 2.73613e-09, No Iterations 3
DILUPBiCGStab:  Solving for h, Initial residual = 0.00394386, Final residual = 2.74181e-09, No Iterations 3
min/max(T) = 299.48, 1044.97
GAMGPCG:  Solving for p_rgh, Initial residual = 0.0205046, Final residual = 7.86255e-07, No Iterations 4
diagonal:  Solving for rho, Initial residual = 0, Final residual = 0, No Iterations 0
time step continuity errors : sum local = 4.11149e-08, global = -4.4593e-09, cumulative = -2.72732e-07
GAMGPCG:  Solving for p_rgh, Initial residual = 0.00261041, Final residual = 1.25572e-07, No Iterations 4
diagonal:  Solving for rho, Initial residual = 0, Final residual = 0, No Iterations 0
time step continuity errors : sum local = 6.6528e-09, global = 9.19141e-11, cumulative = -2.7264e-07
DILUPBiCGStab:  Solving for omega, Initial residual = 0.0001209, Final residual = 2.05922e-09, No Iterations 2
DILUPBiCGStab:  Solving for k, Initial residual = 0.00662651, Final residual = 7.42504e-10, No Iterations 3

ExecutionTime = 1.56 s  ClockTime = 2 s

    Overall     = 0.00151814, 0.01
Time = 261

diagonal:  Solving for rho, Initial residual = 0, Final residual = 0, No Iterations 0

Execution time for mesh.update() = 0 s

DILUPBiCGStab:  Solving for Ux, Initial residual = 0.00559768, Final residual = 6.50329e-09, No Iterations 3
DILUPBiCGStab:  Solving for Uy, Initial residual = 0.00782353, Final residual = 9.38402e-10, No Iterations 3
DILUPBiCGStab:  Solving for O2, Initial residual = 0.00335341, Final residual = 3.02797e-09, No Iterations 3
DILUPBiCGStab:  Solving for H2O, Initial residual = 0.00335387, Final residual = 3.02803e-09, No Iterations 3
DILUPBiCGStab:  Solving for CH4, Initial residual = 0, Final residual = 0, No Iterations 0
DILUPBiCGStab:  Solving for CO2, Initial residual = 0.00335387, Final residual = 3.02802e-09, No Iterations 3
DILUPBiCGStab:  Solving for h, Initial residual = 0.00393956, Final residual = 3.02209e-09, No Iterations 3
min/max(T) = 299.46, 1044.97
GAMGPCG:  Solving for p_rgh, Initial residual = 0.0202388, Final residual = 7.15689e-07, No Iterations 4
diagonal:  Solving for rho, Initial residual = 0, Final residual = 0, No Iterations 0
time step continuity errors : sum local = 3.77725e-08, global = -2.97952e-09, cumulative = -2.7562e-07
GAMGPCG:  Solving for p_rgh, Initial residual = 0.00265785, Final residual = 1.47976e-07, No Iterations 4
diagonal:  Solving for rho, Initial residual = 0, Final residual = 0, No Iterations 0
time step continuity errors : sum local = 7.85339e-09, global = -3.52228e-11, cumulative = -2.75655e-07
DILUPBiCGStab:  Solving for omega, Initial residual = 0.00012106, Final residual = 2.09369e-09, No Iterations 2
DILUPBiCGStab:  Solving for k, Initial residual = 0.00665906, Final residual = 2.50453e-09, No Iterations 3

ExecutionTime = 1.67 s  ClockTime = 2 s

    Overall     = 0.00151296, 0.01
Time = 262

diagonal:  Solving for rho, Initial residual = 0, Final residual = 0, No Iterations 0

Execution time for mesh.update() = 0 s

DILUPBiCGStab:  Solving for Ux, Initial residual = 0.00561299, Final residual = 6.53466e-09, No Iterations 3
DILUPBiCGStab:  Solving for Uy, Initial residual = 0.0078295, Final residual = 9.59986e-09, No Iterations 3
DILUPBiCGStab:  Solving for O2, Initial residual = 0.00334543, Final residual = 3.67777e-09, No Iterations 3
DILUPBiCGStab:  Solving for H2O, Initial residual = 0.00334594, Final residual = 3.67788e-09, No Iterations 3
DILUPBiCGStab:  Solving for CH4, Initial residual = 0, Final residual = 0, No Iterations 0
DILUPBiCGStab:  Solving for CO2, Initial residual = 0.00334594, Final residual = 3.67788e-09, No Iterations 3
DILUPBiCGStab:  Solving for h, Initial residual = 0.00393401, Final residual = 3.63673e-09, No Iterations 3
min/max(T) = 299.474, 1044.97
GAMGPCG:  Solving for p_rgh, Initial residual = 0.0202781, Final residual = 7.3083e-07, No Iterations 4
diagonal:  Solving for rho, Initial residual = 0, Final residual = 0, No Iterations 0
time step continuity errors : sum local = 3.8161e-08, global = -4.01504e-09, cumulative = -2.7967e-07
GAMGPCG:  Solving for p_rgh, Initial residual = 0.00266552, Final residual = 1.40495e-07, No Iterations 4
diagonal:  Solving for rho, Initial residual = 0, Final residual = 0, No Iterations 0
time step continuity errors : sum local = 7.51055e-09, global = -1.84143e-10, cumulative = -2.79854e-07
DILUPBiCGStab:  Solving for omega, Initial residual = 0.000120568, Final residual = 2.1073e-09, No Iterations 2
DILUPBiCGStab:  Solving for k, Initial residual = 0.00670275, Final residual = 7.05083e-09, No Iterations 3

ExecutionTime = 1.79 s  ClockTime = 2 s

    Overall     = 0.00150896, 0.01
Time = 263

diagonal:  Solving for rho, Initial residual = 0, Final residual = 0, No Iterations 0

Execution time for mesh.update() = 0 s

DILUPBiCGStab:  Solving for Ux, Initial residual = 0.00562062, Final residual = 6.73717e-09, No Iterations 3
DILUPBiCGStab:  Solving for Uy, Initial residual = 0.00781984, Final residual = 8.98436e-10, No Iterations 3
DILUPBiCGStab:  Solving for O2, Initial residual = 0.00334612, Final residual = 3.77119e-09, No Iterations 3
DILUPBiCGStab:  Solving for H2O, Initial residual = 0.00334661, Final residual = 3.77138e-09, No Iterations 3
DILUPBiCGStab:  Solving for CH4, Initial residual = 0, Final residual = 0, No Iterations 0
DILUPBiCGStab:  Solving for CO2, Initial residual = 0.00334661, Final residual = 3.77138e-09, No Iterations 3
DILUPBiCGStab:  Solving for h, Initial residual = 0.00393667, Final residual = 3.76621e-09, No Iterations 3
min/max(T) = 299.453, 1044.97
GAMGPCG:  Solving for p_rgh, Initial residual = 0.0202233, Final residual = 6.3935e-07, No Iterations 4
diagonal:  Solving for rho, Initial residual = 0, Final residual = 0, No Iterations 0
time step continuity errors : sum local = 3.39998e-08, global = -2.36375e-09, cumulative = -2.82218e-07
GAMGPCG:  Solving for p_rgh, Initial residual = 0.00265542, Final residual = 1.51438e-07, No Iterations 4
diagonal:  Solving for rho, Initial residual = 0, Final residual = 0, No Iterations 0
time step continuity errors : sum local = 8.12572e-09, global = 5.56531e-11, cumulative = -2.82162e-07
DILUPBiCGStab:  Solving for omega, Initial residual = 0.000120768, Final residual = 2.12829e-09, No Iterations 2
DILUPBiCGStab:  Solving for k, Initial residual = 0.00674732, Final residual = 8.28996e-09, No Iterations 3

ExecutionTime = 1.9 s  ClockTime = 2 s

    Overall     = 0.0015035, 0.01
Time = 264

diagonal:  Solving for rho, Initial residual = 0, Final residual = 0, No Iterations 0

Execution time for mesh.update() = 0 s

DILUPBiCGStab:  Solving for Ux, Initial residual = 0.0056325, Final residual = 6.73919e-09, No Iterations 3
DILUPBiCGStab:  Solving for Uy, Initial residual = 0.00783551, Final residual = 8.23312e-09, No Iterations 3
DILUPBiCGStab:  Solving for O2, Initial residual = 0.00334285, Final residual = 3.89629e-09, No Iterations 3
DILUPBiCGStab:  Solving for H2O, Initial residual = 0.00334337, Final residual = 3.89644e-09, No Iterations 3
DILUPBiCGStab:  Solving for CH4, Initial residual = 0, Final residual = 0, No Iterations 0
DILUPBiCGStab:  Solving for CO2, Initial residual = 0.00334337, Final residual = 3.89645e-09, No Iterations 3
DILUPBiCGStab:  Solving for h, Initial residual = 0.00393907, Final residual = 4.12722e-09, No Iterations 3
min/max(T) = 299.468, 1044.97
GAMGPCG:  Solving for p_rgh, Initial residual = 0.0204858, Final residual = 6.94949e-07, No Iterations 4
diagonal:  Solving for rho, Initial residual = 0, Final residual = 0, No Iterations 0
time step continuity errors : sum local = 3.66752e-08, global = -5.16573e-09, cumulative = -2.87328e-07
GAMGPCG:  Solving for p_rgh, Initial residual = 0.00272029, Final residual = 9.83958e-07, No Iterations 3
diagonal:  Solving for rho, Initial residual = 0, Final residual = 0, No Iterations 0
time step continuity errors : sum local = 4.8237e-08, global = 6.24095e-09, cumulative = -2.81087e-07
DILUPBiCGStab:  Solving for omega, Initial residual = 0.000120607, Final residual = 2.10826e-09, No Iterations 2
DILUPBiCGStab:  Solving for k, Initial residual = 0.00681073, Final residual = 7.70509e-09, No Iterations 3

ExecutionTime = 2.02 s  ClockTime = 2 s

    Overall     = 0.00149889, 0.01
Time = 265

diagonal:  Solving for rho, Initial residual = 0, Final residual = 0, No Iterations 0

Execution time for mesh.update() = 0 s

DILUPBiCGStab:  Solving for Ux, Initial residual = 0.00563809, Final residual = 7.28613e-09, No Iterations 3
DILUPBiCGStab:  Solving for Uy, Initial residual = 0.00781236, Final residual = 7.23902e-09, No Iterations 3
DILUPBiCGStab:  Solving for O2, Initial residual = 0.00334575, Final residual = 4.06423e-09, No Iterations 3
DILUPBiCGStab:  Solving for H2O, Initial residual = 0.00334623, Final residual = 4.06446e-09, No Iterations 3
DILUPBiCGStab:  Solving for CH4, Initial residual = 0, Final residual = 0, No Iterations 0
DILUPBiCGStab:  Solving for CO2, Initial residual = 0.00334623, Final residual = 4.06447e-09, No Iterations 3
DILUPBiCGStab:  Solving for h, Initial residual = 0.00394366, Final residual = 4.41344e-09, No Iterations 3
min/max(T) = 299.446, 1044.97
GAMGPCG:  Solving for p_rgh, Initial residual = 0.0203764, Final residual = 6.11842e-07, No Iterations 4
diagonal:  Solving for rho, Initial residual = 0, Final residual = 0, No Iterations 0
time step continuity errors : sum local = 3.26072e-08, global = -1.03661e-09, cumulative = -2.82124e-07
GAMGPCG:  Solving for p_rgh, Initial residual = 0.00266789, Final residual = 1.59144e-07, No Iterations 4
diagonal:  Solving for rho, Initial residual = 0, Final residual = 0, No Iterations 0
time step continuity errors : sum local = 8.58168e-09, global = 3.92654e-10, cumulative = -2.81731e-07
DILUPBiCGStab:  Solving for omega, Initial residual = 0.00012065, Final residual = 2.08377e-09, No Iterations 2
DILUPBiCGStab:  Solving for k, Initial residual = 0.00686956, Final residual = 7.56388e-10, No Iterations 3

ExecutionTime = 2.13 s  ClockTime = 2 s

    Overall     = 0.00149258, 0.01
Time = 266

diagonal:  Solving for rho, Initial residual = 0, Final residual = 0, No Iterations 0

Execution time for mesh.update() = 0 s

DILUPBiCGStab:  Solving for Ux, Initial residual = 0.00565281, Final residual = 6.36692e-09, No Iterations 3
DILUPBiCGStab:  Solving for Uy, Initial residual = 0.00781361, Final residual = 7.28056e-09, No Iterations 3
DILUPBiCGStab:  Solving for O2, Initial residual = 0.00334765, Final residual = 5.34195e-09, No Iterations 3
DILUPBiCGStab:  Solving for H2O, Initial residual = 0.00334819, Final residual = 5.3423e-09, No Iterations 3
DILUPBiCGStab:  Solving for CH4, Initial residual = 0, Final residual = 0, No Iterations 0
DILUPBiCGStab:  Solving for CO2, Initial residual = 0.00334819, Final residual = 5.3423e-09, No Iterations 3
DILUPBiCGStab:  Solving for h, Initial residual = 0.00395008, Final residual = 5.31284e-09, No Iterations 3
min/max(T) = 299.462, 1044.97
GAMGPCG:  Solving for p_rgh, Initial residual = 0.0205096, Final residual = 7.35985e-07, No Iterations 4
diagonal:  Solving for rho, Initial residual = 0, Final residual = 0, No Iterations 0
time step continuity errors : sum local = 3.90286e-08, global = -6.54836e-09, cumulative = -2.88279e-07
GAMGPCG:  Solving for p_rgh, Initial residual = 0.00270166, Final residual = 9.92935e-07, No Iterations 3
diagonal:  Solving for rho, Initial residual = 0, Final residual = 0, No Iterations 0
time step continuity errors : sum local = 4.92738e-08, global = 7.37232e-09, cumulative = -2.80907e-07
DILUPBiCGStab:  Solving for omega, Initial residual = 0.0001214, Final residual = 1.9442e-09, No Iterations 2
DILUPBiCGStab:  Solving for k, Initial residual = 0.00692689, Final residual = 9.8928e-09, No Iterations 3

ExecutionTime = 2.25 s  ClockTime = 2 s

    Overall     = 0.00148702, 0.01
Time = 267

diagonal:  Solving for rho, Initial residual = 0, Final residual = 0, No Iterations 0

Execution time for mesh.update() = 0 s

DILUPBiCGStab:  Solving for Ux, Initial residual = 0.00567373, Final residual = 7.10307e-09, No Iterations 3
DILUPBiCGStab:  Solving for Uy, Initial residual = 0.0078125, Final residual = 7.81452e-09, No Iterations 3
DILUPBiCGStab:  Solving for O2, Initial residual = 0.003351, Final residual = 4.18385e-09, No Iterations 3
DILUPBiCGStab:  Solving for H2O, Initial residual = 0.00335156, Final residual = 4.18418e-09, No Iterations 3
DILUPBiCGStab:  Solving for CH4, Initial residual = 0, Final residual = 0, No Iterations 0
DILUPBiCGStab:  Solving for CO2, Initial residual = 0.00335156, Final residual = 4.18419e-09, No Iterations 3
DILUPBiCGStab:  Solving for h, Initial residual = 0.00395733, Final residual = 4.25044e-09, No Iterations 3
min/max(T) = 299.436, 1044.97
GAMGPCG:  Solving for p_rgh, Initial residual = 0.0206495, Final residual = 6.23813e-07, No Iterations 4
diagonal:  Solving for rho, Initial residual = 0, Final residual = 0, No Iterations 0
time step continuity errors : sum local = 3.31229e-08, global = -1.65388e-09, cumulative = -2.82561e-07
GAMGPCG:  Solving for p_rgh, Initial residual = 0.00274325, Final residual = 1.594e-07, No Iterations 4
diagonal:  Solving for rho, Initial residual = 0, Final residual = 0, No Iterations 0
time step continuity errors : sum local = 8.52262e-09, global = 7.2831e-10, cumulative = -2.81833e-07
DILUPBiCGStab:  Solving for omega, Initial residual = 0.000120952, Final residual = 1.95049e-09, No Iterations 2
DILUPBiCGStab:  Solving for k, Initial residual = 0.00696881, Final residual = 6.80548e-09, No Iterations 3

ExecutionTime = 2.36 s  ClockTime = 3 s

    Overall     = 0.00148046, 0.01
Time = 268

diagonal:  Solving for rho, Initial residual = 0, Final residual = 0, No Iterations 0

Execution time for mesh.update() = 0 s

DILUPBiCGStab:  Solving for Ux, Initial residual = 0.00569427, Final residual = 7.04721e-09, No Iterations 3
DILUPBiCGStab:  Solving for Uy, Initial residual = 0.00783169, Final residual = 8.10234e-09, No Iterations 3
DILUPBiCGStab:  Solving for O2, Initial residual = 0.00335457, Final residual = 4.70714e-09, No Iterations 3
DILUPBiCGStab:  Solving for H2O, Initial residual = 0.00335504, Final residual = 4.70737e-09, No Iterations 3
DILUPBiCGStab:  Solving for CH4, Initial residual = 0, Final residual = 0, No Iterations 0
DILUPBiCGStab:  Solving for CO2, Initial residual = 0.00335504, Final residual = 4.70737e-09, No Iterations 3
DILUPBiCGStab:  Solving for h, Initial residual = 0.00396169, Final residual = 4.51958e-09, No Iterations 3
min/max(T) = 299.454, 1044.97
GAMGPCG:  Solving for p_rgh, Initial residual = 0.0207108, Final residual = 7.57611e-07, No Iterations 4
diagonal:  Solving for rho, Initial residual = 0, Final residual = 0, No Iterations 0
time step continuity errors : sum local = 4.03333e-08, global = -8.44346e-09, cumulative = -2.90276e-07
GAMGPCG:  Solving for p_rgh, Initial residual = 0.00277014, Final residual = 1.78761e-07, No Iterations 4
diagonal:  Solving for rho, Initial residual = 0, Final residual = 0, No Iterations 0
time step continuity errors : sum local = 9.44708e-09, global = 7.92503e-10, cumulative = -2.89484e-07
DILUPBiCGStab:  Solving for omega, Initial residual = 0.000121986, Final residual = 2.07449e-09, No Iterations 2
DILUPBiCGStab:  Solving for k, Initial residual = 0.00701708, Final residual = 1.02086e-09, No Iterations 3

ExecutionTime = 2.48 s  ClockTime = 3 s

    Overall     = 0.00147588, 0.01
Time = 269

diagonal:  Solving for rho, Initial residual = 0, Final residual = 0, No Iterations 0

Execution time for mesh.update() = 0 s

DILUPBiCGStab:  Solving for Ux, Initial residual = 0.00569773, Final residual = 9.6745e-09, No Iterations 3
DILUPBiCGStab:  Solving for Uy, Initial residual = 0.00782797, Final residual = 8.14211e-09, No Iterations 3
DILUPBiCGStab:  Solving for O2, Initial residual = 0.00335774, Final residual = 3.50852e-09, No Iterations 3
DILUPBiCGStab:  Solving for H2O, Initial residual = 0.0033583, Final residual = 3.50872e-09, No Iterations 3
DILUPBiCGStab:  Solving for CH4, Initial residual = 0, Final residual = 0, No Iterations 0
DILUPBiCGStab:  Solving for CO2, Initial residual = 0.00335829, Final residual = 3.50872e-09, No Iterations 3
DILUPBiCGStab:  Solving for h, Initial residual = 0.0039715, Final residual = 4.0913e-09, No Iterations 3
min/max(T) = 299.428, 1044.97
GAMGPCG:  Solving for p_rgh, Initial residual = 0.0210223, Final residual = 7.4184e-07, No Iterations 4
diagonal:  Solving for rho, Initial residual = 0, Final residual = 0, No Iterations 0
time step continuity errors : sum local = 3.98494e-08, global = -7.11273e-09, cumulative = -2.96596e-07
GAMGPCG:  Solving for p_rgh, Initial residual = 0.00277236, Final residual = 1.72698e-07, No Iterations 4
diagonal:  Solving for rho, Initial residual = 0, Final residual = 0, No Iterations 0
time step continuity errors : sum local = 9.25206e-09, global = 9.64074e-10, cumulative = -2.95632e-07
DILUPBiCGStab:  Solving for omega, Initial residual = 0.00012157, Final residual = 2.03067e-09, No Iterations 2
DILUPBiCGStab:  Solving for k, Initial residual = 0.00704862, Final residual = 2.77076e-09, No Iterations 3

ExecutionTime = 2.59 s  ClockTime = 3 s

    Overall     = 0.00147005, 0.01
Time = 270

diagonal:  Solving for rho, Initial residual = 0, Final residual = 0, No Iterations 0

Execution time for mesh.update() = 0.01 s

DILUPBiCGStab:  Solving for Ux, Initial residual = 0.00572165, Final residual = 7.46138e-09, No Iterations 3
DILUPBiCGStab:  Solving for Uy, Initial residual = 0.00784374, Final residual = 8.2429e-09, No Iterations 3
GAMGPCG:  Solving for G, Initial residual = 0.160026, Final residual = 4.69306e-05, No Iterations 5
DILUPBiCGStab:  Solving for O2, Initial residual = 0.00335834, Final residual = 3.13172e-09, No Iterations 3
DILUPBiCGStab:  Solving for H2O, Initial residual = 0.0033588, Final residual = 3.13185e-09, No Iterations 3
DILUPBiCGStab:  Solving for CH4, Initial residual = 0, Final residual = 0, No Iterations 0
DILUPBiCGStab:  Solving for CO2, Initial residual = 0.0033588, Final residual = 3.13185e-09, No Iterations 3
DILUPBiCGStab:  Solving for h, Initial residual = 0.0039731, Final residual = 3.46201e-09, No Iterations 3
min/max(T) = 299.448, 1044.97
GAMGPCG:  Solving for p_rgh, Initial residual = 0.0207075, Final residual = 6.83602e-07, No Iterations 4
diagonal:  Solving for rho, Initial residual = 0, Final residual = 0, No Iterations 0
time step continuity errors : sum local = 3.67975e-08, global = -8.68306e-09, cumulative = -3.04315e-07
GAMGPCG:  Solving for p_rgh, Initial residual = 0.00283179, Final residual = 1.88167e-07, No Iterations 4
diagonal:  Solving for rho, Initial residual = 0, Final residual = 0, No Iterations 0
time step continuity errors : sum local = 9.96481e-09, global = 1.14184e-09, cumulative = -3.03173e-07
DILUPBiCGStab:  Solving for omega, Initial residual = 0.000122138, Final residual = 1.98096e-09, No Iterations 2
DILUPBiCGStab:  Solving for k, Initial residual = 0.0070787, Final residual = 2.87568e-09, No Iterations 3

ExecutionTime = 2.84 s  ClockTime = 3 s

    Overall     = 0.00146572, 0.01
Time = 271

diagonal:  Solving for rho, Initial residual = 0, Final residual = 0, No Iterations 0

Execution time for mesh.update() = 0 s

DILUPBiCGStab:  Solving for Ux, Initial residual = 0.00571032, Final residual = 9.10602e-09, No Iterations 3
DILUPBiCGStab:  Solving for Uy, Initial residual = 0.00783579, Final residual = 8.48602e-09, No Iterations 3
DILUPBiCGStab:  Solving for O2, Initial residual = 0.00336291, Final residual = 3.79337e-09, No Iterations 3
DILUPBiCGStab:  Solving for H2O, Initial residual = 0.00336349, Final residual = 3.79357e-09, No Iterations 3
DILUPBiCGStab:  Solving for CH4, Initial residual = 0, Final residual = 0, No Iterations 0
DILUPBiCGStab:  Solving for CO2, Initial residual = 0.00336349, Final residual = 3.79357e-09, No Iterations 3
DILUPBiCGStab:  Solving for h, Initial residual = 0.00398179, Final residual = 3.68166e-09, No Iterations 3
min/max(T) = 299.418, 1044.97
GAMGPCG:  Solving for p_rgh, Initial residual = 0.0210252, Final residual = 7.11889e-07, No Iterations 4
diagonal:  Solving for rho, Initial residual = 0, Final residual = 0, No Iterations 0
time step continuity errors : sum local = 3.85773e-08, global = -7.03905e-09, cumulative = -3.10212e-07
GAMGPCG:  Solving for p_rgh, Initial residual = 0.00275152, Final residual = 1.9623e-07, No Iterations 4
diagonal:  Solving for rho, Initial residual = 0, Final residual = 0, No Iterations 0
time step continuity errors : sum local = 1.04116e-08, global = 1.49699e-09, cumulative = -3.08715e-07
DILUPBiCGStab:  Solving for omega, Initial residual = 0.00012221, Final residual = 1.92997e-09, No Iterations 2
DILUPBiCGStab:  Solving for k, Initial residual = 0.00712752, Final residual = 3.86428e-11, No Iterations 4

ExecutionTime = 2.96 s  ClockTime = 3 s

    Overall     = 0.00145993, 0.01
Time = 272

diagonal:  Solving for rho, Initial residual = 0, Final residual = 0, No Iterations 0

Execution time for mesh.update() = 0 s

DILUPBiCGStab:  Solving for Ux, Initial residual = 0.00572371, Final residual = 7.64846e-09, No Iterations 3
DILUPBiCGStab:  Solving for Uy, Initial residual = 0.00783498, Final residual = 1.05086e-09, No Iterations 3
DILUPBiCGStab:  Solving for O2, Initial residual = 0.00336422, Final residual = 3.62475e-09, No Iterations 3
DILUPBiCGStab:  Solving for H2O, Initial residual = 0.0033647, Final residual = 3.62487e-09, No Iterations 3
DILUPBiCGStab:  Solving for CH4, Initial residual = 0, Final residual = 0, No Iterations 0
DILUPBiCGStab:  Solving for CO2, Initial residual = 0.0033647, Final residual = 3.62487e-09, No Iterations 3
DILUPBiCGStab:  Solving for h, Initial residual = 0.00398879, Final residual = 3.53322e-09, No Iterations 3
min/max(T) = 299.44, 1044.97
GAMGPCG:  Solving for p_rgh, Initial residual = 0.0207058, Final residual = 5.99709e-07, No Iterations 4
diagonal:  Solving for rho, Initial residual = 0, Final residual = 0, No Iterations 0
time step continuity errors : sum local = 3.23697e-08, global = -8.03469e-09, cumulative = -3.1675e-07
GAMGPCG:  Solving for p_rgh, Initial residual = 0.00280133, Final residual = 2.22264e-07, No Iterations 4
diagonal:  Solving for rho, Initial residual = 0, Final residual = 0, No Iterations 0
time step continuity errors : sum local = 1.16596e-08, global = 1.5857e-09, cumulative = -3.15164e-07
DILUPBiCGStab:  Solving for omega, Initial residual = 0.000122921, Final residual = 1.8691e-09, No Iterations 2
DILUPBiCGStab:  Solving for k, Initial residual = 0.0071891, Final residual = 1.0339e-09, No Iterations 3

ExecutionTime = 3.08 s  ClockTime = 3 s

    Overall     = 0.00145669, 0.01
Time = 273

diagonal:  Solving for rho, Initial residual = 0, Final residual = 0, No Iterations 0

Execution time for mesh.update() = 0 s

DILUPBiCGStab:  Solving for Ux, Initial residual = 0.00571947, Final residual = 7.40923e-09, No Iterations 3
DILUPBiCGStab:  Solving for Uy, Initial residual = 0.00780803, Final residual = 1.13137e-09, No Iterations 3
DILUPBiCGStab:  Solving for O2, Initial residual = 0.00336864, Final residual = 3.27873e-09, No Iterations 3
DILUPBiCGStab:  Solving for H2O, Initial residual = 0.00336922, Final residual = 3.27883e-09, No Iterations 3
DILUPBiCGStab:  Solving for CH4, Initial residual = 0, Final residual = 0, No Iterations 0
DILUPBiCGStab:  Solving for CO2, Initial residual = 0.00336922, Final residual = 3.27883e-09, No Iterations 3
DILUPBiCGStab:  Solving for h, Initial residual = 0.00399901, Final residual = 3.38745e-09, No Iterations 3
min/max(T) = 299.412, 1044.97
GAMGPCG:  Solving for p_rgh, Initial residual = 0.0208512, Final residual = 7.26767e-07, No Iterations 4
diagonal:  Solving for rho, Initial residual = 0, Final residual = 0, No Iterations 0
time step continuity errors : sum local = 3.96463e-08, global = -6.85323e-09, cumulative = -3.22018e-07
GAMGPCG:  Solving for p_rgh, Initial residual = 0.0027902, Final residual = 2.21553e-07, No Iterations 4
diagonal:  Solving for rho, Initial residual = 0, Final residual = 0, No Iterations 0
time step continuity errors : sum local = 1.15991e-08, global = 1.86249e-09, cumulative = -3.20155e-07
DILUPBiCGStab:  Solving for omega, Initial residual = 0.000122421, Final residual = 1.81987e-09, No Iterations 2
DILUPBiCGStab:  Solving for k, Initial residual = 0.00724834, Final residual = 2.29715e-09, No Iterations 3

ExecutionTime = 3.2 s  ClockTime = 3 s

    Overall     = 0.00145025, 0.01
Time = 274

diagonal:  Solving for rho, Initial residual = 0, Final residual = 0, No Iterations 0

Execution time for mesh.update() = 0 s

DILUPBiCGStab:  Solving for Ux, Initial residual = 0.00573324, Final residual = 6.84115e-09, No Iterations 3
DILUPBiCGStab:  Solving for Uy, Initial residual = 0.0078246, Final residual = 1.59382e-09, No Iterations 3
DILUPBiCGStab:  Solving for O2, Initial residual = 0.00337354, Final residual = 3.33325e-09, No Iterations 3
DILUPBiCGStab:  Solving for H2O, Initial residual = 0.00337402, Final residual = 3.33325e-09, No Iterations 3
DILUPBiCGStab:  Solving for CH4, Initial residual = 0, Final residual = 0, No Iterations 0
DILUPBiCGStab:  Solving for CO2, Initial residual = 0.00337402, Final residual = 3.33325e-09, No Iterations 3
DILUPBiCGStab:  Solving for h, Initial residual = 0.00400953, Final residual = 3.42475e-09, No Iterations 3
min/max(T) = 299.433, 1044.97
GAMGPCG:  Solving for p_rgh, Initial residual = 0.0206903, Final residual = 5.46441e-07, No Iterations 4
diagonal:  Solving for rho, Initial residual = 0, Final residual = 0, No Iterations 0
time step continuity errors : sum local = 2.91822e-08, global = -5.75474e-09, cumulative = -3.2591e-07
GAMGPCG:  Solving for p_rgh, Initial residual = 0.00284176, Final residual = 2.58191e-07, No Iterations 4
diagonal:  Solving for rho, Initial residual = 0, Final residual = 0, No Iterations 0
time step continuity errors : sum local = 1.34409e-08, global = 2.03547e-09, cumulative = -3.23874e-07
DILUPBiCGStab:  Solving for omega, Initial residual = 0.000122894, Final residual = 1.90264e-09, No Iterations 2
DILUPBiCGStab:  Solving for k, Initial residual = 0.00729282, Final residual = 8.4633e-10, No Iterations 3

ExecutionTime = 3.32 s  ClockTime = 4 s

    Overall     = 0.00144711, 0.01
Time = 275

diagonal:  Solving for rho, Initial residual = 0, Final residual = 0, No Iterations 0

Execution time for mesh.update() = 0 s

DILUPBiCGStab:  Solving for Ux, Initial residual = 0.00572902, Final residual = 6.70179e-09, No Iterations 3
DILUPBiCGStab:  Solving for Uy, Initial residual = 0.00779664, Final residual = 1.05772e-09, No Iterations 3
DILUPBiCGStab:  Solving for O2, Initial residual = 0.00337624, Final residual = 3.10199e-09, No Iterations 3
DILUPBiCGStab:  Solving for H2O, Initial residual = 0.00337683, Final residual = 3.10203e-09, No Iterations 3
DILUPBiCGStab:  Solving for CH4, Initial residual = 0, Final residual = 0, No Iterations 0
DILUPBiCGStab:  Solving for CO2, Initial residual = 0.00337683, Final residual = 3.10203e-09, No Iterations 3
DILUPBiCGStab:  Solving for h, Initial residual = 0.00401453, Final residual = 3.16002e-09, No Iterations 3
min/max(T) = 299.405, 1044.97
GAMGPCG:  Solving for p_rgh, Initial residual = 0.0201897, Final residual = 6.84933e-07, No Iterations 4
diagonal:  Solving for rho, Initial residual = 0, Final residual = 0, No Iterations 0
time step continuity errors : sum local = 3.71542e-08, global = -6.43294e-09, cumulative = -3.30307e-07
GAMGPCG:  Solving for p_rgh, Initial residual = 0.00276727, Final residual = 2.59932e-07, No Iterations 4
diagonal:  Solving for rho, Initial residual = 0, Final residual = 0, No Iterations 0
time step continuity errors : sum local = 1.35124e-08, global = 2.10548e-09, cumulative = -3.28202e-07
DILUPBiCGStab:  Solving for omega, Initial residual = 0.000123377, Final residual = 1.72435e-09, No Iterations 2
DILUPBiCGStab:  Solving for k, Initial residual = 0.00732736, Final residual = 6.56218e-09, No Iterations 3

ExecutionTime = 3.43 s  ClockTime = 4 s

    Overall     = 0.00144021, 0.01
Time = 276

diagonal:  Solving for rho, Initial residual = 0, Final residual = 0, No Iterations 0

Execution time for mesh.update() = 0 s

DILUPBiCGStab:  Solving for Ux, Initial residual = 0.00574261, Final residual = 6.12065e-09, No Iterations 3
DILUPBiCGStab:  Solving for Uy, Initial residual = 0.00779791, Final residual = 9.44199e-09, No Iterations 3
DILUPBiCGStab:  Solving for O2, Initial residual = 0.00338383, Final residual = 3.34329e-09, No Iterations 3
DILUPBiCGStab:  Solving for H2O, Initial residual = 0.00338433, Final residual = 3.34321e-09, No Iterations 3
DILUPBiCGStab:  Solving for CH4, Initial residual = 0, Final residual = 0, No Iterations 0
DILUPBiCGStab:  Solving for CO2, Initial residual = 0.00338433, Final residual = 3.3432e-09, No Iterations 3
DILUPBiCGStab:  Solving for h, Initial residual = 0.0040325, Final residual = 3.45014e-09, No Iterations 3
min/max(T) = 299.424, 1044.97
GAMGPCG:  Solving for p_rgh, Initial residual = 0.0206805, Final residual = 5.26075e-07, No Iterations 4
diagonal:  Solving for rho, Initial residual = 0, Final residual = 0, No Iterations 0
time step continuity errors : sum local = 2.83347e-08, global = -5.89905e-09, cumulative = -3.34101e-07
GAMGPCG:  Solving for p_rgh, Initial residual = 0.00278614, Final residual = 2.55673e-07, No Iterations 4
diagonal:  Solving for rho, Initial residual = 0, Final residual = 0, No Iterations 0
time step continuity errors : sum local = 1.33276e-08, global = 1.99806e-09, cumulative = -3.32103e-07
DILUPBiCGStab:  Solving for omega, Initial residual = 0.00012337, Final residual = 1.81323e-09, No Iterations 2
DILUPBiCGStab:  Solving for k, Initial residual = 0.00737203, Final residual = 5.95481e-09, No Iterations 3

ExecutionTime = 3.55 s  ClockTime = 4 s

    Overall     = 0.00143875, 0.01
Time = 277

diagonal:  Solving for rho, Initial residual = 0, Final residual = 0, No Iterations 0

Execution time for mesh.update() = 0 s

DILUPBiCGStab:  Solving for Ux, Initial residual = 0.00573921, Final residual = 6.22848e-09, No Iterations 3
DILUPBiCGStab:  Solving for Uy, Initial residual = 0.00777911, Final residual = 7.97916e-09, No Iterations 3
DILUPBiCGStab:  Solving for O2, Initial residual = 0.00338649, Final residual = 4.03873e-09, No Iterations 3
DILUPBiCGStab:  Solving for H2O, Initial residual = 0.00338709, Final residual = 4.03856e-09, No Iterations 3
DILUPBiCGStab:  Solving for CH4, Initial residual = 0, Final residual = 0, No Iterations 0
DILUPBiCGStab:  Solving for CO2, Initial residual = 0.00338708, Final residual = 4.03855e-09, No Iterations 3
DILUPBiCGStab:  Solving for h, Initial residual = 0.00404118, Final residual = 4.16854e-09, No Iterations 3
min/max(T) = 299.4, 1044.97
GAMGPCG:  Solving for p_rgh, Initial residual = 0.0202949, Final residual = 7.29664e-07, No Iterations 4
diagonal:  Solving for rho, Initial residual = 0, Final residual = 0, No Iterations 0
time step continuity errors : sum local = 3.95209e-08, global = -5.09517e-09, cumulative = -3.37198e-07
GAMGPCG:  Solving for p_rgh, Initial residual = 0.00277119, Final residual = 2.67898e-07, No Iterations 4
diagonal:  Solving for rho, Initial residual = 0, Final residual = 0, No Iterations 0
time step continuity errors : sum local = 1.38504e-08, global = 2.03515e-09, cumulative = -3.35163e-07
DILUPBiCGStab:  Solving for omega, Initial residual = 0.000122924, Final residual = 1.68781e-09, No Iterations 2
DILUPBiCGStab:  Solving for k, Initial residual = 0.00742453, Final residual = 5.65424e-09, No Iterations 3

ExecutionTime = 3.66 s  ClockTime = 4 s

    Overall     = 0.00143251, 0.01
Time = 278

diagonal:  Solving for rho, Initial residual = 0, Final residual = 0, No Iterations 0

Execution time for mesh.update() = 0 s

DILUPBiCGStab:  Solving for Ux, Initial residual = 0.0057627, Final residual = 6.36954e-09, No Iterations 3
DILUPBiCGStab:  Solving for Uy, Initial residual = 0.00778273, Final residual = 6.48257e-09, No Iterations 3
DILUPBiCGStab:  Solving for O2, Initial residual = 0.00339791, Final residual = 4.499e-09, No Iterations 3
DILUPBiCGStab:  Solving for H2O, Initial residual = 0.00339842, Final residual = 4.49854e-09, No Iterations 3
DILUPBiCGStab:  Solving for CH4, Initial residual = 0, Final residual = 0, No Iterations 0
DILUPBiCGStab:  Solving for CO2, Initial residual = 0.00339842, Final residual = 4.49854e-09, No Iterations 3
DILUPBiCGStab:  Solving for h, Initial residual = 0.00405857, Final residual = 4.66733e-09, No Iterations 3
min/max(T) = 299.415, 1044.97
GAMGPCG:  Solving for p_rgh, Initial residual = 0.0207092, Final residual = 6.31774e-07, No Iterations 4
diagonal:  Solving for rho, Initial residual = 0, Final residual = 0, No Iterations 0
time step continuity errors : sum local = 3.32452e-08, global = -2.28041e-09, cumulative = -3.37443e-07
GAMGPCG:  Solving for p_rgh, Initial residual = 0.00284334, Final residual = 2.6324e-07, No Iterations 4
diagonal:  Solving for rho, Initial residual = 0, Final residual = 0, No Iterations 0
time step continuity errors : sum local = 1.35345e-08, global = 1.91661e-09, cumulative = -3.35527e-07
DILUPBiCGStab:  Solving for omega, Initial residual = 0.00012237, Final residual = 1.69976e-09, No Iterations 2
DILUPBiCGStab:  Solving for k, Initial residual = 0.00747081, Final residual = 6.42048e-09, No Iterations 3

ExecutionTime = 3.78 s  ClockTime = 4 s

    Overall     = 0.00143211, 0.01
Time = 279

diagonal:  Solving for rho, Initial residual = 0, Final residual = 0, No Iterations 0

Execution time for mesh.update() = 0 s

DILUPBiCGStab:  Solving for Ux, Initial residual = 0.0057587, Final residual = 6.83205e-09, No Iterations 3
DILUPBiCGStab:  Solving for Uy, Initial residual = 0.00774991, Final residual = 6.31715e-09, No Iterations 3
DILUPBiCGStab:  Solving for O2, Initial residual = 0.00340106, Final residual = 3.86844e-09, No Iterations 3
DILUPBiCGStab:  Solving for H2O, Initial residual = 0.00340166, Final residual = 3.86819e-09, No Iterations 3
DILUPBiCGStab:  Solving for CH4, Initial residual = 0, Final residual = 0, No Iterations 0
DILUPBiCGStab:  Solving for CO2, Initial residual = 0.00340166, Final residual = 3.86819e-09, No Iterations 3
DILUPBiCGStab:  Solving for h, Initial residual = 0.0040618, Final residual = 4.01945e-09, No Iterations 3
min/max(T) = 299.394, 1044.97
GAMGPCG:  Solving for p_rgh, Initial residual = 0.020573, Final residual = 6.87995e-07, No Iterations 4
diagonal:  Solving for rho, Initial residual = 0, Final residual = 0, No Iterations 0
time step continuity errors : sum local = 3.62178e-08, global = -2.61939e-09, cumulative = -3.38146e-07
GAMGPCG:  Solving for p_rgh, Initial residual = 0.00283417, Final residual = 2.47285e-07, No Iterations 4
diagonal:  Solving for rho, Initial residual = 0, Final residual = 0, No Iterations 0
time step continuity errors : sum local = 1.27706e-08, global = 1.90188e-09, cumulative = -3.36244e-07
DILUPBiCGStab:  Solving for omega, Initial residual = 0.00012246, Final residual = 1.65095e-09, No Iterations 2
DILUPBiCGStab:  Solving for k, Initial residual = 0.00751142, Final residual = 5.1585e-09, No Iterations 3

ExecutionTime = 3.89 s  ClockTime = 4 s

    Overall     = 0.00142637, 0.01
Time = 280

diagonal:  Solving for rho, Initial residual = 0, Final residual = 0, No Iterations 0

Execution time for mesh.update() = 0 s

DILUPBiCGStab:  Solving for Ux, Initial residual = 0.0057669, Final residual = 5.82882e-09, No Iterations 3
DILUPBiCGStab:  Solving for Uy, Initial residual = 0.00773774, Final residual = 5.89275e-09, No Iterations 3
GAMGPCG:  Solving for G, Initial residual = 0.199169, Final residual = 6.94776e-05, No Iterations 5
DILUPBiCGStab:  Solving for O2, Initial residual = 0.00341562, Final residual = 2.81641e-09, No Iterations 3
DILUPBiCGStab:  Solving for H2O, Initial residual = 0.00341613, Final residual = 2.8163e-09, No Iterations 3
DILUPBiCGStab:  Solving for CH4, Initial residual = 0, Final residual = 0, No Iterations 0
DILUPBiCGStab:  Solving for CO2, Initial residual = 0.00341613, Final residual = 2.8163e-09, No Iterations 3
DILUPBiCGStab:  Solving for h, Initial residual = 0.00408876, Final residual = 2.86419e-09, No Iterations 3
min/max(T) = 299.408, 1044.97
GAMGPCG:  Solving for p_rgh, Initial residual = 0.0209358, Final residual = 8.11681e-07, No Iterations 4
diagonal:  Solving for rho, Initial residual = 0, Final residual = 0, No Iterations 0
time step continuity errors : sum local = 4.25015e-08, global = 2.1849e-09, cumulative = -3.34059e-07
GAMGPCG:  Solving for p_rgh, Initial residual = 0.0028977, Final residual = 2.53763e-07, No Iterations 4
diagonal:  Solving for rho, Initial residual = 0, Final residual = 0, No Iterations 0
time step continuity errors : sum local = 1.30728e-08, global = 1.75531e-09, cumulative = -3.32304e-07
DILUPBiCGStab:  Solving for omega, Initial residual = 0.000123037, Final residual = 1.6516e-09, No Iterations 2
DILUPBiCGStab:  Solving for k, Initial residual = 0.00753905, Final residual = 4.03476e-09, No Iterations 3

ExecutionTime = 4.14 s  ClockTime = 4 s

    Overall     = 0.00142658, 0.01
Time = 281

diagonal:  Solving for rho, Initial residual = 0, Final residual = 0, No Iterations 0

Execution time for mesh.update() = 0 s

DILUPBiCGStab:  Solving for Ux, Initial residual = 0.00577293, Final residual = 5.35955e-09, No Iterations 3
DILUPBiCGStab:  Solving for Uy, Initial residual = 0.00772319, Final residual = 5.84279e-09, No Iterations 3
DILUPBiCGStab:  Solving for O2, Initial residual = 0.00341696, Final residual = 2.22677e-09, No Iterations 3
DILUPBiCGStab:  Solving for H2O, Initial residual = 0.00341724, Final residual = 2.22678e-09, No Iterations 3
DILUPBiCGStab:  Solving for CH4, Initial residual = 0, Final residual = 0, No Iterations 0
DILUPBiCGStab:  Solving for CO2, Initial residual = 0.00341724, Final residual = 2.22678e-09, No Iterations 3
DILUPBiCGStab:  Solving for h, Initial residual = 0.00409078, Final residual = 2.21245e-09, No Iterations 3
min/max(T) = 299.389, 1044.97
GAMGPCG:  Solving for p_rgh, Initial residual = 0.0205015, Final residual = 7.76655e-07, No Iterations 4
diagonal:  Solving for rho, Initial residual = 0, Final residual = 0, No Iterations 0
time step continuity errors : sum local = 4.05593e-08, global = -9.98222e-10, cumulative = -3.33302e-07
GAMGPCG:  Solving for p_rgh, Initial residual = 0.00288598, Final residual = 2.41568e-07, No Iterations 4
diagonal:  Solving for rho, Initial residual = 0, Final residual = 0, No Iterations 0
time step continuity errors : sum local = 1.25107e-08, global = 1.78746e-09, cumulative = -3.31515e-07
DILUPBiCGStab:  Solving for omega, Initial residual = 0.000122907, Final residual = 1.55536e-09, No Iterations 2
DILUPBiCGStab:  Solving for k, Initial residual = 0.00756635, Final residual = 3.44212e-09, No Iterations 3

ExecutionTime = 4.26 s  ClockTime = 4 s

    Overall     = 0.00141975, 0.01
Time = 282

diagonal:  Solving for rho, Initial residual = 0, Final residual = 0, No Iterations 0

Execution time for mesh.update() = 0 s

DILUPBiCGStab:  Solving for Ux, Initial residual = 0.0057812, Final residual = 4.3786e-09, No Iterations 3
DILUPBiCGStab:  Solving for Uy, Initial residual = 0.00771025, Final residual = 5.71718e-09, No Iterations 3
DILUPBiCGStab:  Solving for O2, Initial residual = 0.00343148, Final residual = 2.03905e-09, No Iterations 3
DILUPBiCGStab:  Solving for H2O, Initial residual = 0.00343196, Final residual = 2.03903e-09, No Iterations 3
DILUPBiCGStab:  Solving for CH4, Initial residual = 0, Final residual = 0, No Iterations 0
DILUPBiCGStab:  Solving for CO2, Initial residual = 0.00343196, Final residual = 2.03903e-09, No Iterations 3
DILUPBiCGStab:  Solving for h, Initial residual = 0.00411224, Final residual = 1.94972e-09, No Iterations 3
min/max(T) = 299.401, 1044.97
GAMGPCG:  Solving for p_rgh, Initial residual = 0.0205464, Final residual = 9.26036e-07, No Iterations 4
diagonal:  Solving for rho, Initial residual = 0, Final residual = 0, No Iterations 0
time step continuity errors : sum local = 4.88382e-08, global = 4.81334e-09, cumulative = -3.26701e-07
GAMGPCG:  Solving for p_rgh, Initial residual = 0.00291894, Final residual = 2.56859e-07, No Iterations 4
diagonal:  Solving for rho, Initial residual = 0, Final residual = 0, No Iterations 0
time step continuity errors : sum local = 1.33117e-08, global = 1.83351e-09, cumulative = -3.24868e-07
DILUPBiCGStab:  Solving for omega, Initial residual = 0.000123087, Final residual = 1.59821e-09, No Iterations 2
DILUPBiCGStab:  Solving for k, Initial residual = 0.00759633, Final residual = 2.7652e-09, No Iterations 3

ExecutionTime = 4.37 s  ClockTime = 5 s

    Overall     = 0.00141936, 0.01
Time = 283

diagonal:  Solving for rho, Initial residual = 0, Final residual = 0, No Iterations 0

Execution time for mesh.update() = 0 s

DILUPBiCGStab:  Solving for Ux, Initial residual = 0.00578864, Final residual = 3.87358e-09, No Iterations 3
DILUPBiCGStab:  Solving for Uy, Initial residual = 0.00771251, Final residual = 5.8864e-09, No Iterations 3
DILUPBiCGStab:  Solving for O2, Initial residual = 0.00343103, Final residual = 1.94794e-09, No Iterations 3
DILUPBiCGStab:  Solving for H2O, Initial residual = 0.00343131, Final residual = 1.94789e-09, No Iterations 3
DILUPBiCGStab:  Solving for CH4, Initial residual = 0, Final residual = 0, No Iterations 0
DILUPBiCGStab:  Solving for CO2, Initial residual = 0.00343131, Final residual = 1.94789e-09, No Iterations 3
DILUPBiCGStab:  Solving for h, Initial residual = 0.00411694, Final residual = 1.77487e-09, No Iterations 3
min/max(T) = 299.382, 1044.97
GAMGPCG:  Solving for p_rgh, Initial residual = 0.0208556, Final residual = 8.60986e-07, No Iterations 4
diagonal:  Solving for rho, Initial residual = 0, Final residual = 0, No Iterations 0
time step continuity errors : sum local = 4.50325e-08, global = -9.56424e-11, cumulative = -3.24964e-07
GAMGPCG:  Solving for p_rgh, Initial residual = 0.00290502, Final residual = 2.66007e-07, No Iterations 4
diagonal:  Solving for rho, Initial residual = 0, Final residual = 0, No Iterations 0
time step continuity errors : sum local = 1.37819e-08, global = 1.81971e-09, cumulative = -3.23144e-07
DILUPBiCGStab:  Solving for omega, Initial residual = 0.000122862, Final residual = 1.58433e-09, No Iterations 2
DILUPBiCGStab:  Solving for k, Initial residual = 0.00762878, Final residual = 2.55008e-09, No Iterations 3

ExecutionTime = 4.49 s  ClockTime = 5 s

    Overall     = 0.00141254, 0.01
Time = 284

diagonal:  Solving for rho, Initial residual = 0, Final residual = 0, No Iterations 0

Execution time for mesh.update() = 0 s

DILUPBiCGStab:  Solving for Ux, Initial residual = 0.00579681, Final residual = 3.62042e-09, No Iterations 3
DILUPBiCGStab:  Solving for Uy, Initial residual = 0.00771983, Final residual = 6.32316e-09, No Iterations 3
DILUPBiCGStab:  Solving for O2, Initial residual = 0.00344512, Final residual = 1.88078e-09, No Iterations 3
DILUPBiCGStab:  Solving for H2O, Initial residual = 0.00344566, Final residual = 1.88072e-09, No Iterations 3
DILUPBiCGStab:  Solving for CH4, Initial residual = 0, Final residual = 0, No Iterations 0
DILUPBiCGStab:  Solving for CO2, Initial residual = 0.00344565, Final residual = 1.88072e-09, No Iterations 3
DILUPBiCGStab:  Solving for h, Initial residual = 0.00413666, Final residual = 1.75009e-09, No Iterations 3
min/max(T) = 299.397, 1044.97
GAMGPCG:  Solving for p_rgh, Initial residual = 0.0210499, Final residual = 1.12559e-07, No Iterations 5
diagonal:  Solving for rho, Initial residual = 0, Final residual = 0, No Iterations 0
time step continuity errors : sum local = 5.98608e-09, global = 1.32266e-09, cumulative = -3.21821e-07
GAMGPCG:  Solving for p_rgh, Initial residual = 0.00299508, Final residual = 2.70423e-07, No Iterations 4
diagonal:  Solving for rho, Initial residual = 0, Final residual = 0, No Iterations 0
time step continuity errors : sum local = 1.40774e-08, global = 1.94086e-09, cumulative = -3.1988e-07
DILUPBiCGStab:  Solving for omega, Initial residual = 0.000123022, Final residual = 1.6657e-09, No Iterations 2
DILUPBiCGStab:  Solving for k, Initial residual = 0.00766942, Final residual = 2.64795e-09, No Iterations 3

ExecutionTime = 4.6 s  ClockTime = 5 s

    Overall     = 0.00141374, 0.01
Time = 285

diagonal:  Solving for rho, Initial residual = 0, Final residual = 0, No Iterations 0

Execution time for mesh.update() = 0 s

DILUPBiCGStab:  Solving for Ux, Initial residual = 0.00580328, Final residual = 3.30592e-09, No Iterations 3
DILUPBiCGStab:  Solving for Uy, Initial residual = 0.00772987, Final residual = 6.55828e-09, No Iterations 3
DILUPBiCGStab:  Solving for O2, Initial residual = 0.00344018, Final residual = 2.08829e-09, No Iterations 3
DILUPBiCGStab:  Solving for H2O, Initial residual = 0.00344047, Final residual = 2.08826e-09, No Iterations 3
DILUPBiCGStab:  Solving for CH4, Initial residual = 0, Final residual = 0, No Iterations 0
DILUPBiCGStab:  Solving for CO2, Initial residual = 0.00344046, Final residual = 2.08826e-09, No Iterations 3
DILUPBiCGStab:  Solving for h, Initial residual = 0.00413012, Final residual = 1.91346e-09, No Iterations 3
min/max(T) = 299.382, 1044.97
GAMGPCG:  Solving for p_rgh, Initial residual = 0.0209601, Final residual = 9.29592e-07, No Iterations 4
diagonal:  Solving for rho, Initial residual = 0, Final residual = 0, No Iterations 0
time step continuity errors : sum local = 4.84578e-08, global = -4.98951e-10, cumulative = -3.20379e-07
GAMGPCG:  Solving for p_rgh, Initial residual = 0.00304178, Final residual = 2.77392e-07, No Iterations 4
diagonal:  Solving for rho, Initial residual = 0, Final residual = 0, No Iterations 0
time step continuity errors : sum local = 1.44417e-08, global = 1.77347e-09, cumulative = -3.18606e-07
DILUPBiCGStab:  Solving for omega, Initial residual = 0.000122368, Final residual = 1.6088e-09, No Iterations 2
DILUPBiCGStab:  Solving for k, Initial residual = 0.00771998, Final residual = 3.4905e-09, No Iterations 3

ExecutionTime = 4.72 s  ClockTime = 5 s

    Overall     = 0.00140763, 0.01
Time = 286

diagonal:  Solving for rho, Initial residual = 0, Final residual = 0, No Iterations 0

Execution time for mesh.update() = 0 s

DILUPBiCGStab:  Solving for Ux, Initial residual = 0.00580877, Final residual = 3.32395e-09, No Iterations 3
DILUPBiCGStab:  Solving for Uy, Initial residual = 0.00771964, Final residual = 6.20895e-09, No Iterations 3
DILUPBiCGStab:  Solving for O2, Initial residual = 0.00345666, Final residual = 2.10267e-09, No Iterations 3
DILUPBiCGStab:  Solving for H2O, Initial residual = 0.00345712, Final residual = 2.10261e-09, No Iterations 3
DILUPBiCGStab:  Solving for CH4, Initial residual = 0, Final residual = 0, No Iterations 0
DILUPBiCGStab:  Solving for CO2, Initial residual = 0.00345712, Final residual = 2.10261e-09, No Iterations 3
DILUPBiCGStab:  Solving for h, Initial residual = 0.00415316, Final residual = 2.12897e-09, No Iterations 3
min/max(T) = 299.396, 1044.97
GAMGPCG:  Solving for p_rgh, Initial residual = 0.0209419, Final residual = 1.08811e-07, No Iterations 5
diagonal:  Solving for rho, Initial residual = 0, Final residual = 0, No Iterations 0
time step continuity errors : sum local = 5.77345e-09, global = 1.38458e-09, cumulative = -3.17221e-07
GAMGPCG:  Solving for p_rgh, Initial residual = 0.00305761, Final residual = 2.89321e-07, No Iterations 4
diagonal:  Solving for rho, Initial residual = 0, Final residual = 0, No Iterations 0
time step continuity errors : sum local = 1.49059e-08, global = 1.72546e-09, cumulative = -3.15496e-07
DILUPBiCGStab:  Solving for omega, Initial residual = 0.00012258, Final residual = 1.62966e-09, No Iterations 2
DILUPBiCGStab:  Solving for k, Initial residual = 0.00776029, Final residual = 3.19133e-09, No Iterations 3

ExecutionTime = 4.83 s  ClockTime = 5 s

    Overall     = 0.00140922, 0.01
Time = 287

diagonal:  Solving for rho, Initial residual = 0, Final residual = 0, No Iterations 0

Execution time for mesh.update() = 0 s

DILUPBiCGStab:  Solving for Ux, Initial residual = 0.00581308, Final residual = 3.70405e-09, No Iterations 3
DILUPBiCGStab:  Solving for Uy, Initial residual = 0.00770427, Final residual = 6.14282e-09, No Iterations 3
DILUPBiCGStab:  Solving for O2, Initial residual = 0.00345466, Final residual = 2.44665e-09, No Iterations 3
DILUPBiCGStab:  Solving for H2O, Initial residual = 0.00345495, Final residual = 2.44666e-09, No Iterations 3
DILUPBiCGStab:  Solving for CH4, Initial residual = 0, Final residual = 0, No Iterations 0
DILUPBiCGStab:  Solving for CO2, Initial residual = 0.00345495, Final residual = 2.44665e-09, No Iterations 3
DILUPBiCGStab:  Solving for h, Initial residual = 0.00414872, Final residual = 2.47426e-09, No Iterations 3
min/max(T) = 299.377, 1044.97
GAMGPCG:  Solving for p_rgh, Initial residual = 0.0207042, Final residual = 9.46824e-07, No Iterations 4
diagonal:  Solving for rho, Initial residual = 0, Final residual = 0, No Iterations 0
time step continuity errors : sum local = 4.86468e-08, global = 3.7849e-10, cumulative = -3.15117e-07
GAMGPCG:  Solving for p_rgh, Initial residual = 0.00303265, Final residual = 2.84704e-07, No Iterations 4
diagonal:  Solving for rho, Initial residual = 0, Final residual = 0, No Iterations 0
time step continuity errors : sum local = 1.46828e-08, global = 1.4948e-09, cumulative = -3.13622e-07
DILUPBiCGStab:  Solving for omega, Initial residual = 0.000123005, Final residual = 1.62169e-09, No Iterations 2
DILUPBiCGStab:  Solving for k, Initial residual = 0.00779275, Final residual = 3.09177e-09, No Iterations 3

ExecutionTime = 4.95 s  ClockTime = 5 s

    Overall     = 0.00140323, 0.01
Time = 288

diagonal:  Solving for rho, Initial residual = 0, Final residual = 0, No Iterations 0

Execution time for mesh.update() = 0 s

DILUPBiCGStab:  Solving for Ux, Initial residual = 0.00582372, Final residual = 3.97022e-09, No Iterations 3
DILUPBiCGStab:  Solving for Uy, Initial residual = 0.00770092, Final residual = 5.82378e-09, No Iterations 3
DILUPBiCGStab:  Solving for O2, Initial residual = 0.00347586, Final residual = 2.42424e-09, No Iterations 3
DILUPBiCGStab:  Solving for H2O, Initial residual = 0.00347639, Final residual = 2.42417e-09, No Iterations 3
DILUPBiCGStab:  Solving for CH4, Initial residual = 0, Final residual = 0, No Iterations 0
DILUPBiCGStab:  Solving for CO2, Initial residual = 0.00347639, Final residual = 2.42416e-09, No Iterations 3
DILUPBiCGStab:  Solving for h, Initial residual = 0.00417185, Final residual = 2.49732e-09, No Iterations 3
min/max(T) = 299.395, 1044.97
GAMGPCG:  Solving for p_rgh, Initial residual = 0.0207181, Final residual = 1.19846e-07, No Iterations 5
diagonal:  Solving for rho, Initial residual = 0, Final residual = 0, No Iterations 0
time step continuity errors : sum local = 6.33749e-09, global = -4.09315e-10, cumulative = -3.14032e-07
GAMGPCG:  Solving for p_rgh, Initial residual = 0.00308235, Final residual = 2.99881e-07, No Iterations 4
diagonal:  Solving for rho, Initial residual = 0, Final residual = 0, No Iterations 0
time step continuity errors : sum local = 1.52844e-08, global = 1.46679e-09, cumulative = -3.12565e-07
DILUPBiCGStab:  Solving for omega, Initial residual = 0.000123689, Final residual = 1.68129e-09, No Iterations 2
DILUPBiCGStab:  Solving for k, Initial residual = 0.00781826, Final residual = 2.69464e-09, No Iterations 3

ExecutionTime = 5.07 s  ClockTime = 5 s

    Overall     = 0.00140542, 0.01
Time = 289

diagonal:  Solving for rho, Initial residual = 0, Final residual = 0, No Iterations 0

Execution time for mesh.update() = 0 s

DILUPBiCGStab:  Solving for Ux, Initial residual = 0.00583298, Final residual = 4.19306e-09, No Iterations 3
DILUPBiCGStab:  Solving for Uy, Initial residual = 0.00769741, Final residual = 5.16916e-09, No Iterations 3
DILUPBiCGStab:  Solving for O2, Initial residual = 0.00347341, Final residual = 2.72169e-09, No Iterations 3
DILUPBiCGStab:  Solving for H2O, Initial residual = 0.00347369, Final residual = 2.72145e-09, No Iterations 3
DILUPBiCGStab:  Solving for CH4, Initial residual = 0, Final residual = 0, No Iterations 0
DILUPBiCGStab:  Solving for CO2, Initial residual = 0.00347369, Final residual = 2.72144e-09, No Iterations 3
DILUPBiCGStab:  Solving for h, Initial residual = 0.0041703, Final residual = 2.78093e-09, No Iterations 3
min/max(T) = 299.376, 1044.97
GAMGPCG:  Solving for p_rgh, Initial residual = 0.0206822, Final residual = 8.75311e-07, No Iterations 4
diagonal:  Solving for rho, Initial residual = 0, Final residual = 0, No Iterations 0
time step continuity errors : sum local = 4.42887e-08, global = -6.01478e-10, cumulative = -3.13166e-07
GAMGPCG:  Solving for p_rgh, Initial residual = 0.00302624, Final residual = 3.26313e-07, No Iterations 4
diagonal:  Solving for rho, Initial residual = 0, Final residual = 0, No Iterations 0
time step continuity errors : sum local = 1.66011e-08, global = 1.37677e-09, cumulative = -3.1179e-07
DILUPBiCGStab:  Solving for omega, Initial residual = 0.000123088, Final residual = 1.70405e-09, No Iterations 2
DILUPBiCGStab:  Solving for k, Initial residual = 0.00782597, Final residual = 2.60256e-09, No Iterations 3

ExecutionTime = 5.18 s  ClockTime = 5 s

    Overall     = 0.00139993, 0.01
Time = 290

diagonal:  Solving for rho, Initial residual = 0, Final residual = 0, No Iterations 0

Execution time for mesh.update() = 0 s

DILUPBiCGStab:  Solving for Ux, Initial residual = 0.00585858, Final residual = 4.60234e-09, No Iterations 3
DILUPBiCGStab:  Solving for Uy, Initial residual = 0.00772052, Final residual = 4.82479e-09, No Iterations 3
GAMGPCG:  Solving for G, Initial residual = 0.188446, Final residual = 4.70876e-05, No Iterations 5
DILUPBiCGStab:  Solving for O2, Initial residual = 0.00347771, Final residual = 2.47328e-09, No Iterations 3
DILUPBiCGStab:  Solving for H2O, Initial residual = 0.00347825, Final residual = 2.47301e-09, No Iterations 3
DILUPBiCGStab:  Solving for CH4, Initial residual = 0, Final residual = 0, No Iterations 0
DILUPBiCGStab:  Solving for CO2, Initial residual = 0.00347825, Final residual = 2.47301e-09, No Iterations 3
DILUPBiCGStab:  Solving for h, Initial residual = 0.00418072, Final residual = 2.68046e-09, No Iterations 3
min/max(T) = 299.39, 1044.97
GAMGPCG:  Solving for p_rgh, Initial residual = 0.0204158, Final residual = 1.10878e-07, No Iterations 5
diagonal:  Solving for rho, Initial residual = 0, Final residual = 0, No Iterations 0
time step continuity errors : sum local = 5.86387e-09, global = -3.92119e-10, cumulative = -3.12182e-07
GAMGPCG:  Solving for p_rgh, Initial residual = 0.00324894, Final residual = 3.63124e-07, No Iterations 4
diagonal:  Solving for rho, Initial residual = 0, Final residual = 0, No Iterations 0
time step continuity errors : sum local = 1.86002e-08, global = 1.39041e-09, cumulative = -3.10791e-07
DILUPBiCGStab:  Solving for omega, Initial residual = 0.000124078, Final residual = 1.79326e-09, No Iterations 2
DILUPBiCGStab:  Solving for k, Initial residual = 0.00782803, Final residual = 2.74061e-09, No Iterations 3

ExecutionTime = 5.44 s  ClockTime = 6 s

    Overall     = 0.00140279, 0.01
Time = 291

diagonal:  Solving for rho, Initial residual = 0, Final residual = 0, No Iterations 0

Execution time for mesh.update() = 0 s

DILUPBiCGStab:  Solving for Ux, Initial residual = 0.00588421, Final residual = 4.85377e-09, No Iterations 3
DILUPBiCGStab:  Solving for Uy, Initial residual = 0.00772725, Final residual = 4.47863e-09, No Iterations 3
DILUPBiCGStab:  Solving for O2, Initial residual = 0.00348744, Final residual = 2.88221e-09, No Iterations 3
DILUPBiCGStab:  Solving for H2O, Initial residual = 0.00348772, Final residual = 2.88168e-09, No Iterations 3
DILUPBiCGStab:  Solving for CH4, Initial residual = 0, Final residual = 0, No Iterations 0
DILUPBiCGStab:  Solving for CO2, Initial residual = 0.00348772, Final residual = 2.88168e-09, No Iterations 3
DILUPBiCGStab:  Solving for h, Initial residual = 0.00418799, Final residual = 2.98787e-09, No Iterations 3
min/max(T) = 299.375, 1044.97
GAMGPCG:  Solving for p_rgh, Initial residual = 0.0207506, Final residual = 8.55635e-07, No Iterations 4
diagonal:  Solving for rho, Initial residual = 0, Final residual = 0, No Iterations 0
time step continuity errors : sum local = 4.33033e-08, global = -8.20491e-10, cumulative = -3.11612e-07
GAMGPCG:  Solving for p_rgh, Initial residual = 0.00337708, Final residual = 3.5784e-07, No Iterations 4
diagonal:  Solving for rho, Initial residual = 0, Final residual = 0, No Iterations 0
time step continuity errors : sum local = 1.82397e-08, global = 1.12564e-09, cumulative = -3.10486e-07
DILUPBiCGStab:  Solving for omega, Initial residual = 0.000123245, Final residual = 1.85126e-09, No Iterations 2
DILUPBiCGStab:  Solving for k, Initial residual = 0.00783098, Final residual = 3.03828e-09, No Iterations 3

ExecutionTime = 5.55 s  ClockTime = 6 s

    Overall     = 0.00139908, 0.01
Time = 292

diagonal:  Solving for rho, Initial residual = 0, Final residual = 0, No Iterations 0

Execution time for mesh.update() = 0 s

DILUPBiCGStab:  Solving for Ux, Initial residual = 0.00591244, Final residual = 5.53727e-09, No Iterations 3
DILUPBiCGStab:  Solving for Uy, Initial residual = 0.00774202, Final residual = 4.7486e-09, No Iterations 3
DILUPBiCGStab:  Solving for O2, Initial residual = 0.00349342, Final residual = 2.69522e-09, No Iterations 3
DILUPBiCGStab:  Solving for H2O, Initial residual = 0.00349396, Final residual = 2.69504e-09, No Iterations 3
DILUPBiCGStab:  Solving for CH4, Initial residual = 0, Final residual = 0, No Iterations 0
DILUPBiCGStab:  Solving for CO2, Initial residual = 0.00349396, Final residual = 2.69504e-09, No Iterations 3
DILUPBiCGStab:  Solving for h, Initial residual = 0.0041967, Final residual = 2.77065e-09, No Iterations 3
min/max(T) = 299.386, 1044.97
GAMGPCG:  Solving for p_rgh, Initial residual = 0.0207565, Final residual = 9.87961e-07, No Iterations 4
diagonal:  Solving for rho, Initial residual = 0, Final residual = 0, No Iterations 0
time step continuity errors : sum local = 4.99038e-08, global = -9.29227e-10, cumulative = -3.11415e-07
GAMGPCG:  Solving for p_rgh, Initial residual = 0.00339125, Final residual = 3.79564e-07, No Iterations 4
diagonal:  Solving for rho, Initial residual = 0, Final residual = 0, No Iterations 0
time step continuity errors : sum local = 1.94103e-08, global = 7.98736e-10, cumulative = -3.10617e-07
DILUPBiCGStab:  Solving for omega, Initial residual = 0.000124158, Final residual = 1.88943e-09, No Iterations 2
DILUPBiCGStab:  Solving for k, Initial residual = 0.00786019, Final residual = 3.4889e-09, No Iterations 3

ExecutionTime = 5.67 s  ClockTime = 6 s

    Overall     = 0.00140361, 0.01
[...]

DILUPBiCGStab:  Solving for Ux, Initial residual = 0.00569549, Final residual = 9.48205e-09, No Iterations 3
DILUPBiCGStab:  Solving for Uy, Initial residual = 0.00467687, Final residual = 1.25973e-09, No Iterations 3
GAMGPCG:  Solving for G, Initial residual = 0.215847, Final residual = 7.76819e-05, No Iterations 5
DILUPBiCGStab:  Solving for O2, Initial residual = 0.00199527, Final residual = 2.23085e-09, No Iterations 3
DILUPBiCGStab:  Solving for H2O, Initial residual = 0.00199527, Final residual = 2.23086e-09, No Iterations 3
DILUPBiCGStab:  Solving for CH4, Initial residual = 0, Final residual = 0, No Iterations 0
DILUPBiCGStab:  Solving for CO2, Initial residual = 0.00199527, Final residual = 2.23086e-09, No Iterations 3
DILUPBiCGStab:  Solving for h, Initial residual = 0.00223689, Final residual = 2.63796e-09, No Iterations 3
min/max(T) = 300, 1044.97
GAMGPCG:  Solving for p_rgh, Initial residual = 0.0202161, Final residual = 1.44502e-07, No Iterations 5
diagonal:  Solving for rho, Initial residual = 0, Final residual = 0, No Iterations 0
time step continuity errors : sum local = 5.94156e-09, global = -5.006e-10, cumulative = 1.57879e-06
GAMGPCG:  Solving for p_rgh, Initial residual = 0.0035433, Final residual = 3.83743e-07, No Iterations 4
diagonal:  Solving for rho, Initial residual = 0, Final residual = 0, No Iterations 0
time step continuity errors : sum local = 1.47877e-08, global = 1.67893e-09, cumulative = 1.58047e-06
DILUPBiCGStab:  Solving for omega, Initial residual = 0.00010824, Final residual = 2.09258e-09, No Iterations 2
DILUPBiCGStab:  Solving for k, Initial residual = 0.00393452, Final residual = 6.14835e-09, No Iterations 3

ExecutionTime = 291.79 s  ClockTime = 292 s

    Overall     = 0.00120736, 0.01
Time = 2491

diagonal:  Solving for rho, Initial residual = 0, Final residual = 0, No Iterations 0

Execution time for mesh.update() = 0 s

DILUPBiCGStab:  Solving for Ux, Initial residual = 0.00573282, Final residual = 1.07011e-09, No Iterations 3
DILUPBiCGStab:  Solving for Uy, Initial residual = 0.00476817, Final residual = 1.40954e-09, No Iterations 3
DILUPBiCGStab:  Solving for O2, Initial residual = 0.00200546, Final residual = 3.07672e-11, No Iterations 4
DILUPBiCGStab:  Solving for H2O, Initial residual = 0.00200546, Final residual = 3.07671e-11, No Iterations 4
DILUPBiCGStab:  Solving for CH4, Initial residual = 0, Final residual = 0, No Iterations 0
DILUPBiCGStab:  Solving for CO2, Initial residual = 0.00200546, Final residual = 3.07671e-11, No Iterations 4
DILUPBiCGStab:  Solving for h, Initial residual = 0.00225133, Final residual = 3.23192e-11, No Iterations 4
min/max(T) = 300, 1044.97
GAMGPCG:  Solving for p_rgh, Initial residual = 0.0203252, Final residual = 1.56201e-07, No Iterations 5
diagonal:  Solving for rho, Initial residual = 0, Final residual = 0, No Iterations 0
time step continuity errors : sum local = 6.48152e-09, global = -7.73715e-10, cumulative = 1.57969e-06
GAMGPCG:  Solving for p_rgh, Initial residual = 0.00374944, Final residual = 3.30868e-07, No Iterations 4
diagonal:  Solving for rho, Initial residual = 0, Final residual = 0, No Iterations 0
time step continuity errors : sum local = 1.30113e-08, global = 1.03841e-09, cumulative = 1.58073e-06
DILUPBiCGStab:  Solving for omega, Initial residual = 0.000108428, Final residual = 1.91651e-09, No Iterations 2
DILUPBiCGStab:  Solving for k, Initial residual = 0.00391409, Final residual = 2.11269e-09, No Iterations 3

ExecutionTime = 291.91 s  ClockTime = 292 s

    Overall     = 0.00120639, 0.01
Time = 2492

diagonal:  Solving for rho, Initial residual = 0, Final residual = 0, No Iterations 0

Execution time for mesh.update() = 0 s

DILUPBiCGStab:  Solving for Ux, Initial residual = 0.00573838, Final residual = 1.13063e-09, No Iterations 3
DILUPBiCGStab:  Solving for Uy, Initial residual = 0.00479672, Final residual = 1.16687e-09, No Iterations 3
DILUPBiCGStab:  Solving for O2, Initial residual = 0.00202488, Final residual = 2.59189e-09, No Iterations 3
DILUPBiCGStab:  Solving for H2O, Initial residual = 0.00202488, Final residual = 2.59189e-09, No Iterations 3
DILUPBiCGStab:  Solving for CH4, Initial residual = 0, Final residual = 0, No Iterations 0
DILUPBiCGStab:  Solving for CO2, Initial residual = 0.00202488, Final residual = 2.59189e-09, No Iterations 3
DILUPBiCGStab:  Solving for h, Initial residual = 0.00227786, Final residual = 2.4734e-09, No Iterations 3
min/max(T) = 300, 1044.97
GAMGPCG:  Solving for p_rgh, Initial residual = 0.0216525, Final residual = 1.35734e-07, No Iterations 5
diagonal:  Solving for rho, Initial residual = 0, Final residual = 0, No Iterations 0
time step continuity errors : sum local = 5.70767e-09, global = -9.90935e-10, cumulative = 1.57974e-06
GAMGPCG:  Solving for p_rgh, Initial residual = 0.00365673, Final residual = 3.88112e-07, No Iterations 4
diagonal:  Solving for rho, Initial residual = 0, Final residual = 0, No Iterations 0
time step continuity errors : sum local = 1.51646e-08, global = 1.41547e-09, cumulative = 1.58116e-06
DILUPBiCGStab:  Solving for omega, Initial residual = 0.000110319, Final residual = 1.81463e-09, No Iterations 2
DILUPBiCGStab:  Solving for k, Initial residual = 0.00391414, Final residual = 1.99779e-09, No Iterations 3

ExecutionTime = 292.03 s  ClockTime = 292 s

    Overall     = 0.00119996, 0.01
Time = 2493

diagonal:  Solving for rho, Initial residual = 0, Final residual = 0, No Iterations 0

Execution time for mesh.update() = 0 s

DILUPBiCGStab:  Solving for Ux, Initial residual = 0.00577657, Final residual = 1.29474e-09, No Iterations 3
DILUPBiCGStab:  Solving for Uy, Initial residual = 0.00494197, Final residual = 1.21673e-09, No Iterations 3
DILUPBiCGStab:  Solving for O2, Initial residual = 0.0020436, Final residual = 1.0932e-09, No Iterations 3
DILUPBiCGStab:  Solving for H2O, Initial residual = 0.0020436, Final residual = 1.0932e-09, No Iterations 3
DILUPBiCGStab:  Solving for CH4, Initial residual = 0, Final residual = 0, No Iterations 0
DILUPBiCGStab:  Solving for CO2, Initial residual = 0.0020436, Final residual = 1.0932e-09, No Iterations 3
DILUPBiCGStab:  Solving for h, Initial residual = 0.00230387, Final residual = 9.42622e-10, No Iterations 3
min/max(T) = 300, 1044.97
GAMGPCG:  Solving for p_rgh, Initial residual = 0.0226106, Final residual = 7.55315e-07, No Iterations 4
diagonal:  Solving for rho, Initial residual = 0, Final residual = 0, No Iterations 0
time step continuity errors : sum local = 2.89618e-08, global = -3.33826e-09, cumulative = 1.57782e-06
GAMGPCG:  Solving for p_rgh, Initial residual = 0.00394934, Final residual = 3.03259e-07, No Iterations 4
diagonal:  Solving for rho, Initial residual = 0, Final residual = 0, No Iterations 0
time step continuity errors : sum local = 1.20346e-08, global = 7.31124e-10, cumulative = 1.57855e-06
DILUPBiCGStab:  Solving for omega, Initial residual = 0.000106692, Final residual = 1.85354e-09, No Iterations 2
DILUPBiCGStab:  Solving for k, Initial residual = 0.00390241, Final residual = 1.61662e-09, No Iterations 3

ExecutionTime = 292.14 s  ClockTime = 292 s

    Overall     = 0.00119637, 0.01
Time = 2494

diagonal:  Solving for rho, Initial residual = 0, Final residual = 0, No Iterations 0

Execution time for mesh.update() = 0 s

DILUPBiCGStab:  Solving for Ux, Initial residual = 0.00576069, Final residual = 1.25347e-09, No Iterations 3
DILUPBiCGStab:  Solving for Uy, Initial residual = 0.00504237, Final residual = 1.0591e-09, No Iterations 3
DILUPBiCGStab:  Solving for O2, Initial residual = 0.00206524, Final residual = 2.98492e-09, No Iterations 3
DILUPBiCGStab:  Solving for H2O, Initial residual = 0.00206524, Final residual = 2.98491e-09, No Iterations 3
DILUPBiCGStab:  Solving for CH4, Initial residual = 0, Final residual = 0, No Iterations 0
DILUPBiCGStab:  Solving for CO2, Initial residual = 0.00206524, Final residual = 2.98491e-09, No Iterations 3
DILUPBiCGStab:  Solving for h, Initial residual = 0.00233322, Final residual = 3.14096e-09, No Iterations 3
min/max(T) = 300, 1044.97
GAMGPCG:  Solving for p_rgh, Initial residual = 0.0226812, Final residual = 8.99287e-07, No Iterations 4
diagonal:  Solving for rho, Initial residual = 0, Final residual = 0, No Iterations 0
time step continuity errors : sum local = 3.49734e-08, global = -5.26944e-09, cumulative = 1.57328e-06
GAMGPCG:  Solving for p_rgh, Initial residual = 0.00388601, Final residual = 3.79217e-07, No Iterations 4
diagonal:  Solving for rho, Initial residual = 0, Final residual = 0, No Iterations 0
time step continuity errors : sum local = 1.49968e-08, global = 1.18867e-09, cumulative = 1.57447e-06
DILUPBiCGStab:  Solving for omega, Initial residual = 0.000107295, Final residual = 1.89214e-09, No Iterations 2
DILUPBiCGStab:  Solving for k, Initial residual = 0.0038997, Final residual = 1.01898e-09, No Iterations 3

ExecutionTime = 292.26 s  ClockTime = 293 s

    Overall     = 0.00118831, 0.01
Time = 2495

diagonal:  Solving for rho, Initial residual = 0, Final residual = 0, No Iterations 0

Execution time for mesh.update() = 0 s

DILUPBiCGStab:  Solving for Ux, Initial residual = 0.00571046, Final residual = 1.19203e-09, No Iterations 3
DILUPBiCGStab:  Solving for Uy, Initial residual = 0.00505048, Final residual = 1.5121e-09, No Iterations 3
DILUPBiCGStab:  Solving for O2, Initial residual = 0.0020645, Final residual = 2.84061e-09, No Iterations 3
DILUPBiCGStab:  Solving for H2O, Initial residual = 0.0020645, Final residual = 2.84061e-09, No Iterations 3
DILUPBiCGStab:  Solving for CH4, Initial residual = 0, Final residual = 0, No Iterations 0
DILUPBiCGStab:  Solving for CO2, Initial residual = 0.0020645, Final residual = 2.84061e-09, No Iterations 3
DILUPBiCGStab:  Solving for h, Initial residual = 0.00233056, Final residual = 3.00098e-09, No Iterations 3
min/max(T) = 300, 1044.97
GAMGPCG:  Solving for p_rgh, Initial residual = 0.0239017, Final residual = 6.60063e-07, No Iterations 4
diagonal:  Solving for rho, Initial residual = 0, Final residual = 0, No Iterations 0
time step continuity errors : sum local = 2.57691e-08, global = -3.14245e-09, cumulative = 1.57133e-06
GAMGPCG:  Solving for p_rgh, Initial residual = 0.00389824, Final residual = 3.20059e-07, No Iterations 4
diagonal:  Solving for rho, Initial residual = 0, Final residual = 0, No Iterations 0
time step continuity errors : sum local = 1.27773e-08, global = 7.77132e-10, cumulative = 1.5721e-06
DILUPBiCGStab:  Solving for omega, Initial residual = 0.000107159, Final residual = 1.9355e-09, No Iterations 2
DILUPBiCGStab:  Solving for k, Initial residual = 0.00388372, Final residual = 2.69716e-09, No Iterations 3

ExecutionTime = 292.38 s  ClockTime = 293 s

    Overall     = 0.00118495, 0.01
Time = 2496

diagonal:  Solving for rho, Initial residual = 0, Final residual = 0, No Iterations 0

Execution time for mesh.update() = 0 s

DILUPBiCGStab:  Solving for Ux, Initial residual = 0.00568134, Final residual = 1.01189e-09, No Iterations 3
DILUPBiCGStab:  Solving for Uy, Initial residual = 0.00504402, Final residual = 1.35038e-09, No Iterations 3
DILUPBiCGStab:  Solving for O2, Initial residual = 0.00208063, Final residual = 3.23421e-09, No Iterations 3
DILUPBiCGStab:  Solving for H2O, Initial residual = 0.00208063, Final residual = 3.23421e-09, No Iterations 3
DILUPBiCGStab:  Solving for CH4, Initial residual = 0, Final residual = 0, No Iterations 0
DILUPBiCGStab:  Solving for CO2, Initial residual = 0.00208063, Final residual = 3.23421e-09, No Iterations 3
DILUPBiCGStab:  Solving for h, Initial residual = 0.00235595, Final residual = 3.44104e-09, No Iterations 3
min/max(T) = 300, 1044.97
GAMGPCG:  Solving for p_rgh, Initial residual = 0.0247818, Final residual = 9.24914e-07, No Iterations 4
diagonal:  Solving for rho, Initial residual = 0, Final residual = 0, No Iterations 0
time step continuity errors : sum local = 3.629e-08, global = -1.17491e-09, cumulative = 1.57093e-06
GAMGPCG:  Solving for p_rgh, Initial residual = 0.00393957, Final residual = 3.14607e-07, No Iterations 4
diagonal:  Solving for rho, Initial residual = 0, Final residual = 0, No Iterations 0
time step continuity errors : sum local = 1.24871e-08, global = 1.09386e-09, cumulative = 1.57202e-06
DILUPBiCGStab:  Solving for omega, Initial residual = 0.000106723, Final residual = 1.97465e-09, No Iterations 2
DILUPBiCGStab:  Solving for k, Initial residual = 0.00388898, Final residual = 2.6685e-09, No Iterations 3
bounding k, min: -0.00157728 max: 0.0370961 average: 0.00422002

ExecutionTime = 292.49 s  ClockTime = 293 s

    Overall     = 0.00117654, 0.01
Time = 2497

diagonal:  Solving for rho, Initial residual = 0, Final residual = 0, No Iterations 0

Execution time for mesh.update() = 0 s

DILUPBiCGStab:  Solving for Ux, Initial residual = 0.00570622, Final residual = 8.85054e-10, No Iterations 3
DILUPBiCGStab:  Solving for Uy, Initial residual = 0.00500031, Final residual = 1.2715e-09, No Iterations 3
DILUPBiCGStab:  Solving for O2, Initial residual = 0.00208447, Final residual = 3.70274e-09, No Iterations 3
DILUPBiCGStab:  Solving for H2O, Initial residual = 0.00208447, Final residual = 3.70274e-09, No Iterations 3
DILUPBiCGStab:  Solving for CH4, Initial residual = 0, Final residual = 0, No Iterations 0
DILUPBiCGStab:  Solving for CO2, Initial residual = 0.00208447, Final residual = 3.70274e-09, No Iterations 3
DILUPBiCGStab:  Solving for h, Initial residual = 0.00235792, Final residual = 3.88392e-09, No Iterations 3
min/max(T) = 299.948, 1044.97
GAMGPCG:  Solving for p_rgh, Initial residual = 0.0243711, Final residual = 6.81137e-07, No Iterations 4
diagonal:  Solving for rho, Initial residual = 0, Final residual = 0, No Iterations 0
time step continuity errors : sum local = 2.68625e-08, global = -1.95296e-09, cumulative = 1.57007e-06
GAMGPCG:  Solving for p_rgh, Initial residual = 0.00415353, Final residual = 3.17522e-07, No Iterations 4
diagonal:  Solving for rho, Initial residual = 0, Final residual = 0, No Iterations 0
time step continuity errors : sum local = 1.25685e-08, global = 1.02417e-09, cumulative = 1.57109e-06
DILUPBiCGStab:  Solving for omega, Initial residual = 0.000106771, Final residual = 1.91177e-09, No Iterations 2
DILUPBiCGStab:  Solving for k, Initial residual = 0.00386413, Final residual = 2.8168e-09, No Iterations 3

ExecutionTime = 292.61 s  ClockTime = 293 s

    Overall     = 0.0011748, 0.01
Time = 2498

diagonal:  Solving for rho, Initial residual = 0, Final residual = 0, No Iterations 0

Execution time for mesh.update() = 0 s

DILUPBiCGStab:  Solving for Ux, Initial residual = 0.00561991, Final residual = 8.11965e-10, No Iterations 3
DILUPBiCGStab:  Solving for Uy, Initial residual = 0.0049967, Final residual = 1.06048e-09, No Iterations 3
DILUPBiCGStab:  Solving for O2, Initial residual = 0.00205608, Final residual = 4.36677e-09, No Iterations 3
DILUPBiCGStab:  Solving for H2O, Initial residual = 0.00205608, Final residual = 4.36677e-09, No Iterations 3
DILUPBiCGStab:  Solving for CH4, Initial residual = 0, Final residual = 0, No Iterations 0
DILUPBiCGStab:  Solving for CO2, Initial residual = 0.00205608, Final residual = 4.36677e-09, No Iterations 3
DILUPBiCGStab:  Solving for h, Initial residual = 0.00232165, Final residual = 4.80105e-09, No Iterations 3
min/max(T) = 299.893, 1044.97
GAMGPCG:  Solving for p_rgh, Initial residual = 0.023621, Final residual = 8.65148e-07, No Iterations 4
diagonal:  Solving for rho, Initial residual = 0, Final residual = 0, No Iterations 0
time step continuity errors : sum local = 3.36097e-08, global = -2.68726e-09, cumulative = 1.56841e-06
GAMGPCG:  Solving for p_rgh, Initial residual = 0.00405211, Final residual = 3.30256e-07, No Iterations 4
diagonal:  Solving for rho, Initial residual = 0, Final residual = 0, No Iterations 0
time step continuity errors : sum local = 1.30784e-08, global = 1.56612e-09, cumulative = 1.56997e-06
DILUPBiCGStab:  Solving for omega, Initial residual = 0.000102997, Final residual = 1.91418e-09, No Iterations 2
DILUPBiCGStab:  Solving for k, Initial residual = 0.00384233, Final residual = 3.36707e-09, No Iterations 3

ExecutionTime = 292.72 s  ClockTime = 293 s

    Overall     = 0.00116991, 0.01
Time = 2499

diagonal:  Solving for rho, Initial residual = 0, Final residual = 0, No Iterations 0

Execution time for mesh.update() = 0.01 s

DILUPBiCGStab:  Solving for Ux, Initial residual = 0.00555259, Final residual = 8.02674e-10, No Iterations 3
DILUPBiCGStab:  Solving for Uy, Initial residual = 0.00496454, Final residual = 1.00788e-09, No Iterations 3
DILUPBiCGStab:  Solving for O2, Initial residual = 0.0020591, Final residual = 4.83172e-09, No Iterations 3
DILUPBiCGStab:  Solving for H2O, Initial residual = 0.0020591, Final residual = 4.83172e-09, No Iterations 3
DILUPBiCGStab:  Solving for CH4, Initial residual = 0, Final residual = 0, No Iterations 0
DILUPBiCGStab:  Solving for CO2, Initial residual = 0.0020591, Final residual = 4.83172e-09, No Iterations 3
DILUPBiCGStab:  Solving for h, Initial residual = 0.00232441, Final residual = 5.71502e-09, No Iterations 3
min/max(T) = 299.894, 1044.97
GAMGPCG:  Solving for p_rgh, Initial residual = 0.0227226, Final residual = 7.40979e-07, No Iterations 4
diagonal:  Solving for rho, Initial residual = 0, Final residual = 0, No Iterations 0
time step continuity errors : sum local = 2.8991e-08, global = -2.92965e-09, cumulative = 1.56704e-06
GAMGPCG:  Solving for p_rgh, Initial residual = 0.00405123, Final residual = 2.89062e-07, No Iterations 4
diagonal:  Solving for rho, Initial residual = 0, Final residual = 0, No Iterations 0
time step continuity errors : sum local = 1.14577e-08, global = 1.50832e-09, cumulative = 1.56855e-06
DILUPBiCGStab:  Solving for omega, Initial residual = 0.000101631, Final residual = 1.9984e-09, No Iterations 2
DILUPBiCGStab:  Solving for k, Initial residual = 0.00380859, Final residual = 3.246e-09, No Iterations 3

ExecutionTime = 292.84 s  ClockTime = 293 s

    Overall     = 0.00117139, 0.01
Time = 2500

diagonal:  Solving for rho, Initial residual = 0, Final residual = 0, No Iterations 0

Execution time for mesh.update() = 0 s

DILUPBiCGStab:  Solving for Ux, Initial residual = 0.0054867, Final residual = 8.60828e-10, No Iterations 3
DILUPBiCGStab:  Solving for Uy, Initial residual = 0.00492808, Final residual = 9.72038e-09, No Iterations 3
GAMGPCG:  Solving for G, Initial residual = 0.26998, Final residual = 3.27714e-05, No Iterations 6
DILUPBiCGStab:  Solving for O2, Initial residual = 0.00205227, Final residual = 4.4334e-09, No Iterations 3
DILUPBiCGStab:  Solving for H2O, Initial residual = 0.00205232, Final residual = 4.43326e-09, No Iterations 3
DILUPBiCGStab:  Solving for CH4, Initial residual = 0, Final residual = 0, No Iterations 0
DILUPBiCGStab:  Solving for CO2, Initial residual = 0.00205232, Final residual = 4.43326e-09, No Iterations 3
DILUPBiCGStab:  Solving for h, Initial residual = 0.00231364, Final residual = 5.09388e-09, No Iterations 3
min/max(T) = 299.911, 1044.97
GAMGPCG:  Solving for p_rgh, Initial residual = 0.0220977, Final residual = 8.07233e-07, No Iterations 4
diagonal:  Solving for rho, Initial residual = 0, Final residual = 0, No Iterations 0
time step continuity errors : sum local = 3.11572e-08, global = -5.17121e-09, cumulative = 1.56338e-06
GAMGPCG:  Solving for p_rgh, Initial residual = 0.00392607, Final residual = 3.51375e-07, No Iterations 4
diagonal:  Solving for rho, Initial residual = 0, Final residual = 0, No Iterations 0
time step continuity errors : sum local = 1.36688e-08, global = 1.96911e-09, cumulative = 1.56535e-06
DILUPBiCGStab:  Solving for omega, Initial residual = 0.000100509, Final residual = 2.00132e-09, No Iterations 2
DILUPBiCGStab:  Solving for k, Initial residual = 0.00378613, Final residual = 2.93881e-09, No Iterations 3

ExecutionTime = 293.09 s  ClockTime = 293 s


Patch Mean : 302.909
Patch Variance : 0.00620958
Patch Gradient : 0.20406
End
