/*---------------------------------------------------------------------------*\
  =========                 |
  \\      /  F ield         | OpenFOAM: The Open Source CFD Toolbox
   \\    /   O peration     | Website:  https://openfoam.org
    \\  /    A nd           | Version:  dev
     \\/     M anipulation  |
\*---------------------------------------------------------------------------*/
Build  : dev-cabe48fb62c1
Exec   : fireDyMFoam
Date   : Apr 15 2019
Time   : 11:30:15
Host   : "Host"
PID    : 28885
I/O    : uncollated
Case   : /home/tesla/OpenFOAM/tesla-dev/run/rollerOpt_COBYLA_NEW
nProcs : 1
sigFpe : Enabling floating point exception trapping (FOAM_SIGFPE).
fileModificationChecking : Monitoring run-time modified files using timeStampMaster (fileModificationSkew 10)
allowSystemOperations : Allowing user-supplied system call operations

// * * * * * * * * * * * * * * * * * * * * * * * * * * * * * * * * * * * * * //
Create time

--> FOAM Warning : 
    From function void* Foam::dlOpen(const Foam::fileName&, bool)
    in file POSIX.C at line 1268
    dlopen error : libgroovyBC.so: cannot open shared object file: No such file or directory
--> FOAM Warning : 
    From function bool Foam::dlLibraryTable::open(const Foam::fileName&, bool)
    in file db/dynamicLibrary/dlLibraryTable/dlLibraryTable.C at line 105
    could not load "libgroovyBC.so"
Create mesh for time = 250

Selecting dynamicFvMesh dynamicRefineFvMesh
Detected 536 cells that are protected from refinement. Writing these to cellSet protectedCells.

PIMPLE: No convergence criteria found


PIMPLE: Operating solver in PISO mode


Initializing Solver

Selecting thermodynamics package 
{
    type            hePsiThermo;
    mixture         reactingMixture;
    transport       sutherland;
    thermo          janaf;
    energy          sensibleEnthalpy;
    equationOfState perfectGas;
    specie          specie;
}

Selecting chemistryReader foamChemistryReader
    elements not defined in "/home/tesla/OpenFOAM/tesla-dev/run/rollerOpt_COBYLA_NEW/constant/reactions"
Reading/calculating face flux field phi

No MRF models present

Selecting turbulence model type RAS
Selecting RAS turbulence model kOmegaSST
Selecting patchDistMethod meshWave
kOmegaSSTCoeffs
{
    delta           cubeRootVol;
    cubeRootVolCoeffs
    {
        deltaCoeff      1;
    }
    alphaK1         0.85;
    alphaK2         1;
    alphaOmega1     0.5;
    alphaOmega2     0.856;
    gamma1          0.555556;
    gamma2          0.44;
    beta1           0.075;
    beta2           0.0828;
    betaStar        0.09;
    a1              0.31;
    b1              1;
    c1              10;
    F3              false;
}

Selecting combustion model none<psiThermoCombustion>
--> FOAM Warning : 
    From function static Foam::autoPtr<T> Foam::combustionModel::New(typename CombustionModel::reactionThermo&, const Foam::compressibleTurbulenceModel&, const Foam::word&) [with CombustionModel = Foam::CombustionModel<Foam::psiReactionThermo>; typename CombustionModel::reactionThermo = Foam::psiReactionThermo]
    in file /home/tesla/OpenFOAM/OpenFOAM-dev/src/combustionModels/lnInclude/combustionModelTemplates.C at line 69
    Template parameters are no longer required when selecting a combustionModel. This information is now obtained directly from the thermodynamics. Actually selecting combustion model none.

Reading g

Reading hRef
Calculating field g.h


Reading pRef
Selecting radiationModel P1
Selecting absorptionEmissionModel greyMeanAbsorptionEmission
Selecting scatterModel none
Selecting sootModel none
Creating finite volume options from "system/fvOptions"

No finite volume options present
Using LTS

Starting time loop

Using dynamicCode for functionObject patchCalcs at line 64 in "/home/tesla/OpenFOAM/tesla-dev/run/rollerOpt_COBYLA_NEW/system/controlDict.functions.patchCalcs"
    Overall     = 0.00143238, 0.01
Time = 251

diagonal:  Solving for rho, Initial residual = 0, Final residual = 0, No Iterations 0

Execution time for mesh.update() = 0 s

DILUPBiCGStab:  Solving for Ux, Initial residual = 0.00519243, Final residual = 2.01402e-09, No Iterations 3
DILUPBiCGStab:  Solving for Uy, Initial residual = 0.00733457, Final residual = 6.22543e-09, No Iterations 3
GAMGPCG:  Solving for G, Initial residual = 0.0227463, Final residual = 6.81174e-05, No Iterations 4
DILUPBiCGStab:  Solving for O2, Initial residual = 0.00322295, Final residual = 1.4353e-09, No Iterations 3
DILUPBiCGStab:  Solving for H2O, Initial residual = 0.00322291, Final residual = 1.43652e-09, No Iterations 3
DILUPBiCGStab:  Solving for CH4, Initial residual = 0, Final residual = 0, No Iterations 0
DILUPBiCGStab:  Solving for CO2, Initial residual = 0.00322291, Final residual = 1.43651e-09, No Iterations 3
DILUPBiCGStab:  Solving for h, Initial residual = 0.00358896, Final residual = 1.04671e-09, No Iterations 3
min/max(T) = 299.982, 1044.97
GAMGPCG:  Solving for p_rgh, Initial residual = 0.0197899, Final residual = 1.75912e-07, No Iterations 5
diagonal:  Solving for rho, Initial residual = 0, Final residual = 0, No Iterations 0
time step continuity errors : sum local = 2.46322e-06, global = -8.17565e-08, cumulative = -8.17565e-08
GAMGPCG:  Solving for p_rgh, Initial residual = 0.00278665, Final residual = 4.93766e-07, No Iterations 4
diagonal:  Solving for rho, Initial residual = 0, Final residual = 0, No Iterations 0
time step continuity errors : sum local = 2.47019e-06, global = -8.34006e-08, cumulative = -1.65157e-07
DILUPBiCGStab:  Solving for omega, Initial residual = 9.35851e-05, Final residual = 5.82014e-10, No Iterations 2
DILUPBiCGStab:  Solving for k, Initial residual = 0.00610189, Final residual = 1.05399e-09, No Iterations 3

ExecutionTime = 0.39 s  ClockTime = 0 s

    Overall     = 0.00142571, 0.01
Time = 252

diagonal:  Solving for rho, Initial residual = 0, Final residual = 0, No Iterations 0

Execution time for mesh.update() = 0 s

DILUPBiCGStab:  Solving for Ux, Initial residual = 0.00519992, Final residual = 1.94512e-09, No Iterations 3
DILUPBiCGStab:  Solving for Uy, Initial residual = 0.0073459, Final residual = 6.40292e-09, No Iterations 3
DILUPBiCGStab:  Solving for O2, Initial residual = 0.00324159, Final residual = 1.24857e-09, No Iterations 3
DILUPBiCGStab:  Solving for H2O, Initial residual = 0.00324158, Final residual = 1.2486e-09, No Iterations 3
DILUPBiCGStab:  Solving for CH4, Initial residual = 0, Final residual = 0, No Iterations 0
DILUPBiCGStab:  Solving for CO2, Initial residual = 0.00324158, Final residual = 1.2486e-09, No Iterations 3
DILUPBiCGStab:  Solving for h, Initial residual = 0.00360785, Final residual = 1.05531e-09, No Iterations 3
min/max(T) = 299.956, 1044.97
GAMGPCG:  Solving for p_rgh, Initial residual = 0.0194572, Final residual = 1.7779e-07, No Iterations 5
diagonal:  Solving for rho, Initial residual = 0, Final residual = 0, No Iterations 0
time step continuity errors : sum local = 1.10473e-08, global = 7.51686e-11, cumulative = -1.65082e-07
GAMGPCG:  Solving for p_rgh, Initial residual = 0.00272817, Final residual = 4.96623e-07, No Iterations 4
diagonal:  Solving for rho, Initial residual = 0, Final residual = 0, No Iterations 0
time step continuity errors : sum local = 3.00235e-08, global = -1.80124e-09, cumulative = -1.66883e-07
DILUPBiCGStab:  Solving for omega, Initial residual = 9.38932e-05, Final residual = 9.11859e-09, No Iterations 2
DILUPBiCGStab:  Solving for k, Initial residual = 0.00611735, Final residual = 9.93697e-10, No Iterations 3

ExecutionTime = 0.5 s  ClockTime = 0 s

    Overall     = 0.00142669, 0.01
Time = 253

diagonal:  Solving for rho, Initial residual = 0, Final residual = 0, No Iterations 0

Execution time for mesh.update() = 0 s

DILUPBiCGStab:  Solving for Ux, Initial residual = 0.00523215, Final residual = 1.94156e-09, No Iterations 3
DILUPBiCGStab:  Solving for Uy, Initial residual = 0.00732294, Final residual = 5.88655e-09, No Iterations 3
DILUPBiCGStab:  Solving for O2, Initial residual = 0.00324475, Final residual = 1.42346e-09, No Iterations 3
DILUPBiCGStab:  Solving for H2O, Initial residual = 0.00324474, Final residual = 1.42325e-09, No Iterations 3
DILUPBiCGStab:  Solving for CH4, Initial residual = 0, Final residual = 0, No Iterations 0
DILUPBiCGStab:  Solving for CO2, Initial residual = 0.00324474, Final residual = 1.42325e-09, No Iterations 3
DILUPBiCGStab:  Solving for h, Initial residual = 0.00360923, Final residual = 1.06401e-09, No Iterations 3
min/max(T) = 299.98, 1044.97
GAMGPCG:  Solving for p_rgh, Initial residual = 0.0197042, Final residual = 2.12084e-07, No Iterations 5
diagonal:  Solving for rho, Initial residual = 0, Final residual = 0, No Iterations 0
time step continuity errors : sum local = 1.31548e-08, global = 1.59438e-10, cumulative = -1.66724e-07
GAMGPCG:  Solving for p_rgh, Initial residual = 0.00272262, Final residual = 4.9168e-07, No Iterations 4
diagonal:  Solving for rho, Initial residual = 0, Final residual = 0, No Iterations 0
time step continuity errors : sum local = 2.97179e-08, global = -1.96284e-09, cumulative = -1.68687e-07
DILUPBiCGStab:  Solving for omega, Initial residual = 9.41763e-05, Final residual = 5.50459e-10, No Iterations 2
DILUPBiCGStab:  Solving for k, Initial residual = 0.0061207, Final residual = 1.12241e-09, No Iterations 3

ExecutionTime = 0.62 s  ClockTime = 0 s

    Overall     = 0.00142116, 0.01
Time = 254

diagonal:  Solving for rho, Initial residual = 0, Final residual = 0, No Iterations 0

Execution time for mesh.update() = 0 s

DILUPBiCGStab:  Solving for Ux, Initial residual = 0.00525535, Final residual = 1.93645e-09, No Iterations 3
DILUPBiCGStab:  Solving for Uy, Initial residual = 0.00732815, Final residual = 5.33318e-09, No Iterations 3
DILUPBiCGStab:  Solving for O2, Initial residual = 0.0032663, Final residual = 1.05665e-09, No Iterations 3
DILUPBiCGStab:  Solving for H2O, Initial residual = 0.0032663, Final residual = 1.05638e-09, No Iterations 3
DILUPBiCGStab:  Solving for CH4, Initial residual = 0, Final residual = 0, No Iterations 0
DILUPBiCGStab:  Solving for CO2, Initial residual = 0.0032663, Final residual = 1.05637e-09, No Iterations 3
DILUPBiCGStab:  Solving for h, Initial residual = 0.00363564, Final residual = 1.03058e-09, No Iterations 3
min/max(T) = 299.959, 1044.97
GAMGPCG:  Solving for p_rgh, Initial residual = 0.0199632, Final residual = 2.27868e-07, No Iterations 5
diagonal:  Solving for rho, Initial residual = 0, Final residual = 0, No Iterations 0
time step continuity errors : sum local = 1.40643e-08, global = 2.44035e-10, cumulative = -1.68443e-07
GAMGPCG:  Solving for p_rgh, Initial residual = 0.00276609, Final residual = 4.88066e-07, No Iterations 4
diagonal:  Solving for rho, Initial residual = 0, Final residual = 0, No Iterations 0
time step continuity errors : sum local = 2.93462e-08, global = -2.17763e-09, cumulative = -1.7062e-07
DILUPBiCGStab:  Solving for omega, Initial residual = 9.36989e-05, Final residual = 9.28137e-09, No Iterations 2
DILUPBiCGStab:  Solving for k, Initial residual = 0.00612319, Final residual = 1.06856e-09, No Iterations 3

ExecutionTime = 0.74 s  ClockTime = 1 s

    Overall     = 0.00142194, 0.01
Time = 255

diagonal:  Solving for rho, Initial residual = 0, Final residual = 0, No Iterations 0

Execution time for mesh.update() = 0 s

DILUPBiCGStab:  Solving for Ux, Initial residual = 0.00529521, Final residual = 1.96931e-09, No Iterations 3
DILUPBiCGStab:  Solving for Uy, Initial residual = 0.00730192, Final residual = 4.89284e-09, No Iterations 3
DILUPBiCGStab:  Solving for O2, Initial residual = 0.00327012, Final residual = 1.01103e-09, No Iterations 3
DILUPBiCGStab:  Solving for H2O, Initial residual = 0.00327012, Final residual = 1.01093e-09, No Iterations 3
DILUPBiCGStab:  Solving for CH4, Initial residual = 0, Final residual = 0, No Iterations 0
DILUPBiCGStab:  Solving for CO2, Initial residual = 0.00327012, Final residual = 1.01092e-09, No Iterations 3
DILUPBiCGStab:  Solving for h, Initial residual = 0.00363037, Final residual = 1.05455e-09, No Iterations 3
min/max(T) = 299.982, 1044.97
GAMGPCG:  Solving for p_rgh, Initial residual = 0.0200349, Final residual = 3.04085e-07, No Iterations 5
diagonal:  Solving for rho, Initial residual = 0, Final residual = 0, No Iterations 0
time step continuity errors : sum local = 1.88266e-08, global = 7.10732e-10, cumulative = -1.69909e-07
GAMGPCG:  Solving for p_rgh, Initial residual = 0.00276741, Final residual = 4.97597e-07, No Iterations 4
diagonal:  Solving for rho, Initial residual = 0, Final residual = 0, No Iterations 0
time step continuity errors : sum local = 2.99476e-08, global = -2.52313e-09, cumulative = -1.72433e-07
DILUPBiCGStab:  Solving for omega, Initial residual = 9.36806e-05, Final residual = 5.37081e-10, No Iterations 2
DILUPBiCGStab:  Solving for k, Initial residual = 0.00609678, Final residual = 9.74808e-10, No Iterations 3

ExecutionTime = 0.86 s  ClockTime = 1 s

    Overall     = 0.00141437, 0.01
Time = 256

diagonal:  Solving for rho, Initial residual = 0, Final residual = 0, No Iterations 0

Execution time for mesh.update() = 0 s

DILUPBiCGStab:  Solving for Ux, Initial residual = 0.0053209, Final residual = 2.00875e-09, No Iterations 3
DILUPBiCGStab:  Solving for Uy, Initial residual = 0.00729967, Final residual = 4.60972e-09, No Iterations 3
DILUPBiCGStab:  Solving for O2, Initial residual = 0.00328825, Final residual = 1.12691e-09, No Iterations 3
DILUPBiCGStab:  Solving for H2O, Initial residual = 0.00328826, Final residual = 1.1268e-09, No Iterations 3
DILUPBiCGStab:  Solving for CH4, Initial residual = 0, Final residual = 0, No Iterations 0
DILUPBiCGStab:  Solving for CO2, Initial residual = 0.00328826, Final residual = 1.1268e-09, No Iterations 3
DILUPBiCGStab:  Solving for h, Initial residual = 0.00365578, Final residual = 1.06959e-09, No Iterations 3
min/max(T) = 299.959, 1044.97
GAMGPCG:  Solving for p_rgh, Initial residual = 0.0204499, Final residual = 3.19856e-07, No Iterations 5
diagonal:  Solving for rho, Initial residual = 0, Final residual = 0, No Iterations 0
time step continuity errors : sum local = 1.97712e-08, global = 7.60455e-10, cumulative = -1.71672e-07
GAMGPCG:  Solving for p_rgh, Initial residual = 0.00280237, Final residual = 4.78742e-07, No Iterations 4
diagonal:  Solving for rho, Initial residual = 0, Final residual = 0, No Iterations 0
time step continuity errors : sum local = 2.88593e-08, global = -2.61414e-09, cumulative = -1.74286e-07
DILUPBiCGStab:  Solving for omega, Initial residual = 9.35395e-05, Final residual = 9.27118e-09, No Iterations 2
DILUPBiCGStab:  Solving for k, Initial residual = 0.00608695, Final residual = 9.26339e-10, No Iterations 3

ExecutionTime = 0.99 s  ClockTime = 1 s

    Overall     = 0.00141531, 0.01
Time = 257

diagonal:  Solving for rho, Initial residual = 0, Final residual = 0, No Iterations 0

Execution time for mesh.update() = 0 s

DILUPBiCGStab:  Solving for Ux, Initial residual = 0.00535371, Final residual = 1.94474e-09, No Iterations 3
DILUPBiCGStab:  Solving for Uy, Initial residual = 0.00727733, Final residual = 4.21313e-09, No Iterations 3
DILUPBiCGStab:  Solving for O2, Initial residual = 0.00329149, Final residual = 1.02066e-09, No Iterations 3
DILUPBiCGStab:  Solving for H2O, Initial residual = 0.00329148, Final residual = 1.02063e-09, No Iterations 3
DILUPBiCGStab:  Solving for CH4, Initial residual = 0, Final residual = 0, No Iterations 0
DILUPBiCGStab:  Solving for CO2, Initial residual = 0.00329148, Final residual = 1.02063e-09, No Iterations 3
DILUPBiCGStab:  Solving for h, Initial residual = 0.00365844, Final residual = 1.01706e-09, No Iterations 3
min/max(T) = 299.98, 1044.97
GAMGPCG:  Solving for p_rgh, Initial residual = 0.0208822, Final residual = 3.10644e-07, No Iterations 5
diagonal:  Solving for rho, Initial residual = 0, Final residual = 0, No Iterations 0
time step continuity errors : sum local = 1.91276e-08, global = 1.16641e-09, cumulative = -1.7312e-07
GAMGPCG:  Solving for p_rgh, Initial residual = 0.00279199, Final residual = 4.4731e-07, No Iterations 4
diagonal:  Solving for rho, Initial residual = 0, Final residual = 0, No Iterations 0
time step continuity errors : sum local = 2.68639e-08, global = -2.65321e-09, cumulative = -1.75773e-07
DILUPBiCGStab:  Solving for omega, Initial residual = 9.40413e-05, Final residual = 9.70431e-09, No Iterations 2
DILUPBiCGStab:  Solving for k, Initial residual = 0.00608442, Final residual = 8.51587e-10, No Iterations 3

ExecutionTime = 1.1 s  ClockTime = 1 s

    Overall     = 0.0014086, 0.01
Time = 258

diagonal:  Solving for rho, Initial residual = 0, Final residual = 0, No Iterations 0

Execution time for mesh.update() = 0 s

DILUPBiCGStab:  Solving for Ux, Initial residual = 0.00538985, Final residual = 1.9619e-09, No Iterations 3
DILUPBiCGStab:  Solving for Uy, Initial residual = 0.00728612, Final residual = 3.82602e-09, No Iterations 3
DILUPBiCGStab:  Solving for O2, Initial residual = 0.00330009, Final residual = 9.12187e-10, No Iterations 3
DILUPBiCGStab:  Solving for H2O, Initial residual = 0.0033001, Final residual = 9.12168e-10, No Iterations 3
DILUPBiCGStab:  Solving for CH4, Initial residual = 0, Final residual = 0, No Iterations 0
DILUPBiCGStab:  Solving for CO2, Initial residual = 0.0033001, Final residual = 9.12169e-10, No Iterations 3
DILUPBiCGStab:  Solving for h, Initial residual = 0.00367112, Final residual = 9.92705e-10, No Iterations 3
min/max(T) = 299.963, 1044.97
GAMGPCG:  Solving for p_rgh, Initial residual = 0.0206166, Final residual = 3.7643e-07, No Iterations 5
diagonal:  Solving for rho, Initial residual = 0, Final residual = 0, No Iterations 0
time step continuity errors : sum local = 2.30596e-08, global = 1.47038e-09, cumulative = -1.74303e-07
GAMGPCG:  Solving for p_rgh, Initial residual = 0.00285554, Final residual = 4.38062e-07, No Iterations 4
diagonal:  Solving for rho, Initial residual = 0, Final residual = 0, No Iterations 0
time step continuity errors : sum local = 2.6298e-08, global = -2.67772e-09, cumulative = -1.7698e-07
DILUPBiCGStab:  Solving for omega, Initial residual = 9.34061e-05, Final residual = 9.71233e-09, No Iterations 2
DILUPBiCGStab:  Solving for k, Initial residual = 0.00608604, Final residual = 8.49364e-10, No Iterations 3

ExecutionTime = 1.22 s  ClockTime = 1 s

    Overall     = 0.00140977, 0.01
Time = 259

diagonal:  Solving for rho, Initial residual = 0, Final residual = 0, No Iterations 0

Execution time for mesh.update() = 0.01 s

DILUPBiCGStab:  Solving for Ux, Initial residual = 0.00542113, Final residual = 2.0035e-09, No Iterations 3
DILUPBiCGStab:  Solving for Uy, Initial residual = 0.00725587, Final residual = 3.52555e-09, No Iterations 3
DILUPBiCGStab:  Solving for O2, Initial residual = 0.00331254, Final residual = 1.07351e-09, No Iterations 3
DILUPBiCGStab:  Solving for H2O, Initial residual = 0.00331254, Final residual = 1.07356e-09, No Iterations 3
DILUPBiCGStab:  Solving for CH4, Initial residual = 0, Final residual = 0, No Iterations 0
DILUPBiCGStab:  Solving for CO2, Initial residual = 0.00331254, Final residual = 1.07356e-09, No Iterations 3
DILUPBiCGStab:  Solving for h, Initial residual = 0.00368068, Final residual = 1.01716e-09, No Iterations 3
min/max(T) = 299.981, 1044.97
GAMGPCG:  Solving for p_rgh, Initial residual = 0.0205107, Final residual = 3.74897e-07, No Iterations 5
diagonal:  Solving for rho, Initial residual = 0, Final residual = 0, No Iterations 0
time step continuity errors : sum local = 2.29542e-08, global = 1.83101e-09, cumulative = -1.75149e-07
GAMGPCG:  Solving for p_rgh, Initial residual = 0.00283084, Final residual = 4.1539e-07, No Iterations 4
diagonal:  Solving for rho, Initial residual = 0, Final residual = 0, No Iterations 0
time step continuity errors : sum local = 2.48487e-08, global = -2.55591e-09, cumulative = -1.77705e-07
DILUPBiCGStab:  Solving for omega, Initial residual = 9.30613e-05, Final residual = 9.49132e-09, No Iterations 2
DILUPBiCGStab:  Solving for k, Initial residual = 0.00609199, Final residual = 8.73746e-10, No Iterations 3

ExecutionTime = 1.34 s  ClockTime = 1 s

    Overall     = 0.00140164, 0.01
Time = 260

diagonal:  Solving for rho, Initial residual = 0, Final residual = 0, No Iterations 0

Execution time for mesh.update() = 0 s

DILUPBiCGStab:  Solving for Ux, Initial residual = 0.00544807, Final residual = 1.96482e-09, No Iterations 3
DILUPBiCGStab:  Solving for Uy, Initial residual = 0.00723415, Final residual = 3.09051e-09, No Iterations 3
GAMGPCG:  Solving for G, Initial residual = 0.105937, Final residual = 5.4721e-05, No Iterations 6
DILUPBiCGStab:  Solving for O2, Initial residual = 0.00333236, Final residual = 1.09274e-09, No Iterations 3
DILUPBiCGStab:  Solving for H2O, Initial residual = 0.00333237, Final residual = 1.09275e-09, No Iterations 3
DILUPBiCGStab:  Solving for CH4, Initial residual = 0, Final residual = 0, No Iterations 0
DILUPBiCGStab:  Solving for CO2, Initial residual = 0.00333237, Final residual = 1.09276e-09, No Iterations 3
DILUPBiCGStab:  Solving for h, Initial residual = 0.00370458, Final residual = 1.09863e-09, No Iterations 3
min/max(T) = 299.964, 1044.97
GAMGPCG:  Solving for p_rgh, Initial residual = 0.0208452, Final residual = 3.13187e-07, No Iterations 5
diagonal:  Solving for rho, Initial residual = 0, Final residual = 0, No Iterations 0
time step continuity errors : sum local = 1.89507e-08, global = 1.38981e-09, cumulative = -1.76316e-07
GAMGPCG:  Solving for p_rgh, Initial residual = 0.00281765, Final residual = 4.01023e-07, No Iterations 4
diagonal:  Solving for rho, Initial residual = 0, Final residual = 0, No Iterations 0
time step continuity errors : sum local = 2.38587e-08, global = -2.12003e-09, cumulative = -1.78436e-07
DILUPBiCGStab:  Solving for omega, Initial residual = 9.33149e-05, Final residual = 9.53871e-09, No Iterations 2
DILUPBiCGStab:  Solving for k, Initial residual = 0.00607527, Final residual = 9.0747e-10, No Iterations 3

ExecutionTime = 1.59 s  ClockTime = 1 s

    Overall     = 0.00140299, 0.01
Time = 261

diagonal:  Solving for rho, Initial residual = 0, Final residual = 0, No Iterations 0

Execution time for mesh.update() = 0 s

DILUPBiCGStab:  Solving for Ux, Initial residual = 0.00548117, Final residual = 2.02667e-09, No Iterations 3
DILUPBiCGStab:  Solving for Uy, Initial residual = 0.00721147, Final residual = 3.12792e-09, No Iterations 3
DILUPBiCGStab:  Solving for O2, Initial residual = 0.00333542, Final residual = 1.14744e-09, No Iterations 3
DILUPBiCGStab:  Solving for H2O, Initial residual = 0.00333542, Final residual = 1.14742e-09, No Iterations 3
DILUPBiCGStab:  Solving for CH4, Initial residual = 0, Final residual = 0, No Iterations 0
DILUPBiCGStab:  Solving for CO2, Initial residual = 0.00333542, Final residual = 1.14742e-09, No Iterations 3
DILUPBiCGStab:  Solving for h, Initial residual = 0.00370932, Final residual = 1.22209e-09, No Iterations 3
min/max(T) = 299.982, 1044.97
GAMGPCG:  Solving for p_rgh, Initial residual = 0.0211889, Final residual = 3.0842e-07, No Iterations 5
diagonal:  Solving for rho, Initial residual = 0, Final residual = 0, No Iterations 0
time step continuity errors : sum local = 1.8581e-08, global = 1.71969e-09, cumulative = -1.76716e-07
GAMGPCG:  Solving for p_rgh, Initial residual = 0.00289098, Final residual = 3.86458e-07, No Iterations 4
diagonal:  Solving for rho, Initial residual = 0, Final residual = 0, No Iterations 0
time step continuity errors : sum local = 2.28539e-08, global = -1.94307e-09, cumulative = -1.78659e-07
DILUPBiCGStab:  Solving for omega, Initial residual = 9.25774e-05, Final residual = 9.51669e-09, No Iterations 2
DILUPBiCGStab:  Solving for k, Initial residual = 0.00606751, Final residual = 9.33293e-10, No Iterations 3

ExecutionTime = 1.72 s  ClockTime = 2 s

    Overall     = 0.00139576, 0.01
Time = 262

diagonal:  Solving for rho, Initial residual = 0, Final residual = 0, No Iterations 0

Execution time for mesh.update() = 0 s

DILUPBiCGStab:  Solving for Ux, Initial residual = 0.00550758, Final residual = 2.14771e-09, No Iterations 3
DILUPBiCGStab:  Solving for Uy, Initial residual = 0.00722231, Final residual = 3.0301e-09, No Iterations 3
DILUPBiCGStab:  Solving for O2, Initial residual = 0.00335677, Final residual = 1.17556e-09, No Iterations 3
DILUPBiCGStab:  Solving for H2O, Initial residual = 0.00335677, Final residual = 1.17555e-09, No Iterations 3
DILUPBiCGStab:  Solving for CH4, Initial residual = 0, Final residual = 0, No Iterations 0
DILUPBiCGStab:  Solving for CO2, Initial residual = 0.00335678, Final residual = 1.17555e-09, No Iterations 3
DILUPBiCGStab:  Solving for h, Initial residual = 0.00373624, Final residual = 1.30504e-09, No Iterations 3
min/max(T) = 299.97, 1044.97
GAMGPCG:  Solving for p_rgh, Initial residual = 0.0215822, Final residual = 3.34083e-07, No Iterations 5
diagonal:  Solving for rho, Initial residual = 0, Final residual = 0, No Iterations 0
time step continuity errors : sum local = 2.00502e-08, global = 2.00539e-09, cumulative = -1.76654e-07
GAMGPCG:  Solving for p_rgh, Initial residual = 0.00293966, Final residual = 3.67094e-07, No Iterations 4
diagonal:  Solving for rho, Initial residual = 0, Final residual = 0, No Iterations 0
time step continuity errors : sum local = 2.16043e-08, global = -1.70843e-09, cumulative = -1.78362e-07
DILUPBiCGStab:  Solving for omega, Initial residual = 9.22072e-05, Final residual = 9.76504e-09, No Iterations 2
DILUPBiCGStab:  Solving for k, Initial residual = 0.00607059, Final residual = 9.37103e-10, No Iterations 3

ExecutionTime = 1.84 s  ClockTime = 2 s

    Overall     = 0.00139716, 0.01
Time = 263

diagonal:  Solving for rho, Initial residual = 0, Final residual = 0, No Iterations 0

Execution time for mesh.update() = 0 s

DILUPBiCGStab:  Solving for Ux, Initial residual = 0.00554433, Final residual = 2.13302e-09, No Iterations 3
DILUPBiCGStab:  Solving for Uy, Initial residual = 0.00719341, Final residual = 2.94675e-09, No Iterations 3
DILUPBiCGStab:  Solving for O2, Initial residual = 0.00336418, Final residual = 1.42518e-09, No Iterations 3
DILUPBiCGStab:  Solving for H2O, Initial residual = 0.00336417, Final residual = 1.42512e-09, No Iterations 3
DILUPBiCGStab:  Solving for CH4, Initial residual = 0, Final residual = 0, No Iterations 0
DILUPBiCGStab:  Solving for CO2, Initial residual = 0.00336417, Final residual = 1.42512e-09, No Iterations 3
DILUPBiCGStab:  Solving for h, Initial residual = 0.00374573, Final residual = 1.44008e-09, No Iterations 3
min/max(T) = 299.987, 1044.97
GAMGPCG:  Solving for p_rgh, Initial residual = 0.022258, Final residual = 2.66656e-07, No Iterations 5
diagonal:  Solving for rho, Initial residual = 0, Final residual = 0, No Iterations 0
time step continuity errors : sum local = 1.58528e-08, global = 1.84693e-09, cumulative = -1.76515e-07
GAMGPCG:  Solving for p_rgh, Initial residual = 0.00290786, Final residual = 3.85697e-07, No Iterations 4
diagonal:  Solving for rho, Initial residual = 0, Final residual = 0, No Iterations 0
time step continuity errors : sum local = 2.26279e-08, global = -1.80086e-09, cumulative = -1.78316e-07
DILUPBiCGStab:  Solving for omega, Initial residual = 9.32053e-05, Final residual = 9.64982e-09, No Iterations 2
DILUPBiCGStab:  Solving for k, Initial residual = 0.00606891, Final residual = 9.50921e-10, No Iterations 3

ExecutionTime = 1.95 s  ClockTime = 2 s

    Overall     = 0.00138859, 0.01
Time = 264

diagonal:  Solving for rho, Initial residual = 0, Final residual = 0, No Iterations 0

Execution time for mesh.update() = 0 s

DILUPBiCGStab:  Solving for Ux, Initial residual = 0.0055796, Final residual = 2.14066e-09, No Iterations 3
DILUPBiCGStab:  Solving for Uy, Initial residual = 0.0071989, Final residual = 3.2125e-09, No Iterations 3
DILUPBiCGStab:  Solving for O2, Initial residual = 0.00337945, Final residual = 1.49645e-09, No Iterations 3
DILUPBiCGStab:  Solving for H2O, Initial residual = 0.00337946, Final residual = 1.49639e-09, No Iterations 3
DILUPBiCGStab:  Solving for CH4, Initial residual = 0, Final residual = 0, No Iterations 0
DILUPBiCGStab:  Solving for CO2, Initial residual = 0.00337946, Final residual = 1.49639e-09, No Iterations 3
DILUPBiCGStab:  Solving for h, Initial residual = 0.00376143, Final residual = 1.40855e-09, No Iterations 3
min/max(T) = 299.974, 1044.97
GAMGPCG:  Solving for p_rgh, Initial residual = 0.0224595, Final residual = 2.5982e-07, No Iterations 5
diagonal:  Solving for rho, Initial residual = 0, Final residual = 0, No Iterations 0
time step continuity errors : sum local = 1.53947e-08, global = 1.66516e-09, cumulative = -1.76651e-07
GAMGPCG:  Solving for p_rgh, Initial residual = 0.00296763, Final residual = 3.85528e-07, No Iterations 4
diagonal:  Solving for rho, Initial residual = 0, Final residual = 0, No Iterations 0
time step continuity errors : sum local = 2.24736e-08, global = -1.43012e-09, cumulative = -1.78081e-07
DILUPBiCGStab:  Solving for omega, Initial residual = 9.27027e-05, Final residual = 9.58665e-09, No Iterations 2
DILUPBiCGStab:  Solving for k, Initial residual = 0.00606981, Final residual = 9.54693e-10, No Iterations 3

ExecutionTime = 2.08 s  ClockTime = 2 s

    Overall     = 0.00139017, 0.01
Time = 265

diagonal:  Solving for rho, Initial residual = 0, Final residual = 0, No Iterations 0

Execution time for mesh.update() = 0 s

DILUPBiCGStab:  Solving for Ux, Initial residual = 0.00559334, Final residual = 2.23031e-09, No Iterations 3
DILUPBiCGStab:  Solving for Uy, Initial residual = 0.00716885, Final residual = 3.34757e-09, No Iterations 3
DILUPBiCGStab:  Solving for O2, Initial residual = 0.00338157, Final residual = 1.62162e-09, No Iterations 3
DILUPBiCGStab:  Solving for H2O, Initial residual = 0.00338156, Final residual = 1.62156e-09, No Iterations 3
DILUPBiCGStab:  Solving for CH4, Initial residual = 0, Final residual = 0, No Iterations 0
DILUPBiCGStab:  Solving for CO2, Initial residual = 0.00338156, Final residual = 1.62156e-09, No Iterations 3
DILUPBiCGStab:  Solving for h, Initial residual = 0.00376946, Final residual = 1.36927e-09, No Iterations 3
min/max(T) = 299.994, 1044.97
GAMGPCG:  Solving for p_rgh, Initial residual = 0.0231772, Final residual = 2.24788e-07, No Iterations 5
diagonal:  Solving for rho, Initial residual = 0, Final residual = 0, No Iterations 0
time step continuity errors : sum local = 1.32243e-08, global = 1.61233e-09, cumulative = -1.76469e-07
GAMGPCG:  Solving for p_rgh, Initial residual = 0.00294102, Final residual = 3.9866e-07, No Iterations 4
diagonal:  Solving for rho, Initial residual = 0, Final residual = 0, No Iterations 0
time step continuity errors : sum local = 2.31858e-08, global = -1.27387e-09, cumulative = -1.77742e-07
DILUPBiCGStab:  Solving for omega, Initial residual = 9.32064e-05, Final residual = 8.56368e-09, No Iterations 2
DILUPBiCGStab:  Solving for k, Initial residual = 0.00607181, Final residual = 9.07165e-10, No Iterations 3

ExecutionTime = 2.2 s  ClockTime = 2 s

    Overall     = 0.00138185, 0.01
Time = 266

diagonal:  Solving for rho, Initial residual = 0, Final residual = 0, No Iterations 0

Execution time for mesh.update() = 0 s

DILUPBiCGStab:  Solving for Ux, Initial residual = 0.0056206, Final residual = 2.04109e-09, No Iterations 3
DILUPBiCGStab:  Solving for Uy, Initial residual = 0.0071638, Final residual = 3.43187e-09, No Iterations 3
DILUPBiCGStab:  Solving for O2, Initial residual = 0.0034003, Final residual = 1.41526e-09, No Iterations 3
DILUPBiCGStab:  Solving for H2O, Initial residual = 0.0034003, Final residual = 1.41521e-09, No Iterations 3
DILUPBiCGStab:  Solving for CH4, Initial residual = 0, Final residual = 0, No Iterations 0
DILUPBiCGStab:  Solving for CO2, Initial residual = 0.0034003, Final residual = 1.41521e-09, No Iterations 3
DILUPBiCGStab:  Solving for h, Initial residual = 0.00379297, Final residual = 1.21361e-09, No Iterations 3
min/max(T) = 299.985, 1044.97
GAMGPCG:  Solving for p_rgh, Initial residual = 0.0231344, Final residual = 2.19077e-07, No Iterations 5
diagonal:  Solving for rho, Initial residual = 0, Final residual = 0, No Iterations 0
time step continuity errors : sum local = 1.28169e-08, global = 1.2111e-09, cumulative = -1.76531e-07
GAMGPCG:  Solving for p_rgh, Initial residual = 0.00312787, Final residual = 4.41325e-07, No Iterations 4
diagonal:  Solving for rho, Initial residual = 0, Final residual = 0, No Iterations 0
time step continuity errors : sum local = 2.54787e-08, global = -1.15777e-09, cumulative = -1.77689e-07
DILUPBiCGStab:  Solving for omega, Initial residual = 9.30217e-05, Final residual = 8.90644e-09, No Iterations 2
DILUPBiCGStab:  Solving for k, Initial residual = 0.00608816, Final residual = 9.33631e-10, No Iterations 3

ExecutionTime = 2.31 s  ClockTime = 2 s

    Overall     = 0.00138387, 0.01
Time = 267

diagonal:  Solving for rho, Initial residual = 0, Final residual = 0, No Iterations 0

Execution time for mesh.update() = 0 s

DILUPBiCGStab:  Solving for Ux, Initial residual = 0.00564991, Final residual = 1.85015e-09, No Iterations 3
DILUPBiCGStab:  Solving for Uy, Initial residual = 0.00711936, Final residual = 3.24212e-09, No Iterations 3
DILUPBiCGStab:  Solving for O2, Initial residual = 0.00341068, Final residual = 1.37168e-09, No Iterations 3
DILUPBiCGStab:  Solving for H2O, Initial residual = 0.00341067, Final residual = 1.37164e-09, No Iterations 3
DILUPBiCGStab:  Solving for CH4, Initial residual = 0, Final residual = 0, No Iterations 0
DILUPBiCGStab:  Solving for CO2, Initial residual = 0.00341067, Final residual = 1.37164e-09, No Iterations 3
DILUPBiCGStab:  Solving for h, Initial residual = 0.00379864, Final residual = 1.13657e-09, No Iterations 3
min/max(T) = 300, 1044.97
GAMGPCG:  Solving for p_rgh, Initial residual = 0.0238172, Final residual = 2.11229e-07, No Iterations 5
diagonal:  Solving for rho, Initial residual = 0, Final residual = 0, No Iterations 0
time step continuity errors : sum local = 1.23625e-08, global = 1.16623e-09, cumulative = -1.76523e-07
GAMGPCG:  Solving for p_rgh, Initial residual = 0.00310553, Final residual = 4.0352e-07, No Iterations 4
diagonal:  Solving for rho, Initial residual = 0, Final residual = 0, No Iterations 0
time step continuity errors : sum local = 2.32734e-08, global = -9.20237e-10, cumulative = -1.77443e-07
DILUPBiCGStab:  Solving for omega, Initial residual = 9.25961e-05, Final residual = 8.23932e-09, No Iterations 2
DILUPBiCGStab:  Solving for k, Initial residual = 0.00608797, Final residual = 8.42105e-10, No Iterations 3

ExecutionTime = 2.43 s  ClockTime = 2 s

    Overall     = 0.0013745, 0.01
Time = 268

diagonal:  Solving for rho, Initial residual = 0, Final residual = 0, No Iterations 0

Execution time for mesh.update() = 0 s

DILUPBiCGStab:  Solving for Ux, Initial residual = 0.00567018, Final residual = 2.01622e-09, No Iterations 3
DILUPBiCGStab:  Solving for Uy, Initial residual = 0.0071329, Final residual = 3.09649e-09, No Iterations 3
DILUPBiCGStab:  Solving for O2, Initial residual = 0.00342632, Final residual = 9.93648e-09, No Iterations 2
DILUPBiCGStab:  Solving for H2O, Initial residual = 0.00342632, Final residual = 9.93628e-09, No Iterations 2
DILUPBiCGStab:  Solving for CH4, Initial residual = 0, Final residual = 0, No Iterations 0
DILUPBiCGStab:  Solving for CO2, Initial residual = 0.00342632, Final residual = 9.93628e-09, No Iterations 2
DILUPBiCGStab:  Solving for h, Initial residual = 0.00382367, Final residual = 1.18147e-09, No Iterations 3
min/max(T) = 299.995, 1044.97
GAMGPCG:  Solving for p_rgh, Initial residual = 0.0236327, Final residual = 2.28929e-07, No Iterations 5
diagonal:  Solving for rho, Initial residual = 0, Final residual = 0, No Iterations 0
time step continuity errors : sum local = 1.34548e-08, global = 6.88473e-10, cumulative = -1.76755e-07
GAMGPCG:  Solving for p_rgh, Initial residual = 0.00317413, Final residual = 4.38801e-07, No Iterations 4
diagonal:  Solving for rho, Initial residual = 0, Final residual = 0, No Iterations 0
time step continuity errors : sum local = 2.53331e-08, global = -5.63999e-10, cumulative = -1.77319e-07
DILUPBiCGStab:  Solving for omega, Initial residual = 9.22097e-05, Final residual = 8.54357e-09, No Iterations 2
DILUPBiCGStab:  Solving for k, Initial residual = 0.00609505, Final residual = 7.80265e-10, No Iterations 3

ExecutionTime = 2.55 s  ClockTime = 2 s

    Overall     = 0.00137635, 0.01
Time = 269

diagonal:  Solving for rho, Initial residual = 0, Final residual = 0, No Iterations 0

Execution time for mesh.update() = 0 s

DILUPBiCGStab:  Solving for Ux, Initial residual = 0.00569633, Final residual = 1.76276e-09, No Iterations 3
DILUPBiCGStab:  Solving for Uy, Initial residual = 0.00710721, Final residual = 3.03894e-09, No Iterations 3
DILUPBiCGStab:  Solving for O2, Initial residual = 0.00343078, Final residual = 1.55303e-09, No Iterations 3
DILUPBiCGStab:  Solving for H2O, Initial residual = 0.00343078, Final residual = 1.55299e-09, No Iterations 3
DILUPBiCGStab:  Solving for CH4, Initial residual = 0, Final residual = 0, No Iterations 0
DILUPBiCGStab:  Solving for CO2, Initial residual = 0.00343078, Final residual = 1.55298e-09, No Iterations 3
DILUPBiCGStab:  Solving for h, Initial residual = 0.00383905, Final residual = 4.06795e-09, No Iterations 3
min/max(T) = 300, 1044.97
GAMGPCG:  Solving for p_rgh, Initial residual = 0.0244733, Final residual = 2.29274e-07, No Iterations 5
diagonal:  Solving for rho, Initial residual = 0, Final residual = 0, No Iterations 0
time step continuity errors : sum local = 1.33895e-08, global = 5.58621e-10, cumulative = -1.7676e-07
GAMGPCG:  Solving for p_rgh, Initial residual = 0.00321488, Final residual = 4.03846e-07, No Iterations 4
diagonal:  Solving for rho, Initial residual = 0, Final residual = 0, No Iterations 0
time step continuity errors : sum local = 2.3276e-08, global = -5.55737e-10, cumulative = -1.77316e-07
DILUPBiCGStab:  Solving for omega, Initial residual = 9.34104e-05, Final residual = 7.58373e-09, No Iterations 2
DILUPBiCGStab:  Solving for k, Initial residual = 0.00609549, Final residual = 9.61426e-09, No Iterations 2

ExecutionTime = 2.67 s  ClockTime = 2 s

    Overall     = 0.00136693, 0.01
Time = 270

diagonal:  Solving for rho, Initial residual = 0, Final residual = 0, No Iterations 0

Execution time for mesh.update() = 0 s

DILUPBiCGStab:  Solving for Ux, Initial residual = 0.00572201, Final residual = 1.80653e-09, No Iterations 3
DILUPBiCGStab:  Solving for Uy, Initial residual = 0.00713197, Final residual = 3.25144e-09, No Iterations 3
GAMGPCG:  Solving for G, Initial residual = 0.122753, Final residual = 6.49287e-05, No Iterations 6
DILUPBiCGStab:  Solving for O2, Initial residual = 0.00344575, Final residual = 1.49779e-09, No Iterations 3
DILUPBiCGStab:  Solving for H2O, Initial residual = 0.00344575, Final residual = 1.49596e-09, No Iterations 3
DILUPBiCGStab:  Solving for CH4, Initial residual = 0, Final residual = 0, No Iterations 0
DILUPBiCGStab:  Solving for CO2, Initial residual = 0.00344575, Final residual = 1.49605e-09, No Iterations 3
DILUPBiCGStab:  Solving for h, Initial residual = 0.00385501, Final residual = 2.37499e-09, No Iterations 3
min/max(T) = 300, 1044.97
GAMGPCG:  Solving for p_rgh, Initial residual = 0.0233604, Final residual = 2.4843e-07, No Iterations 5
diagonal:  Solving for rho, Initial residual = 0, Final residual = 0, No Iterations 0
time step continuity errors : sum local = 1.44994e-08, global = 5.22598e-11, cumulative = -1.77263e-07
GAMGPCG:  Solving for p_rgh, Initial residual = 0.00329212, Final residual = 4.52144e-07, No Iterations 4
diagonal:  Solving for rho, Initial residual = 0, Final residual = 0, No Iterations 0
time step continuity errors : sum local = 2.59028e-08, global = 8.7402e-11, cumulative = -1.77176e-07
DILUPBiCGStab:  Solving for omega, Initial residual = 9.29615e-05, Final residual = 7.81323e-09, No Iterations 2
DILUPBiCGStab:  Solving for k, Initial residual = 0.00611834, Final residual = 9.47957e-09, No Iterations 2

ExecutionTime = 2.92 s  ClockTime = 3 s

    Overall     = 0.00136829, 0.01
Time = 271

diagonal:  Solving for rho, Initial residual = 0, Final residual = 0, No Iterations 0

Execution time for mesh.update() = 0 s

DILUPBiCGStab:  Solving for Ux, Initial residual = 0.00571675, Final residual = 1.70837e-09, No Iterations 3
DILUPBiCGStab:  Solving for Uy, Initial residual = 0.00708991, Final residual = 2.86565e-09, No Iterations 3
DILUPBiCGStab:  Solving for O2, Initial residual = 0.00346068, Final residual = 4.77128e-09, No Iterations 3
DILUPBiCGStab:  Solving for H2O, Initial residual = 0.00346068, Final residual = 4.76928e-09, No Iterations 3
DILUPBiCGStab:  Solving for CH4, Initial residual = 0, Final residual = 0, No Iterations 0
DILUPBiCGStab:  Solving for CO2, Initial residual = 0.00346068, Final residual = 4.76971e-09, No Iterations 3
DILUPBiCGStab:  Solving for h, Initial residual = 0.00386842, Final residual = 2.2964e-09, No Iterations 3
min/max(T) = 300, 1044.97
GAMGPCG:  Solving for p_rgh, Initial residual = 0.0236136, Final residual = 2.82198e-07, No Iterations 5
diagonal:  Solving for rho, Initial residual = 0, Final residual = 0, No Iterations 0
time step continuity errors : sum local = 1.65313e-08, global = -4.75197e-11, cumulative = -1.77224e-07
GAMGPCG:  Solving for p_rgh, Initial residual = 0.00317821, Final residual = 4.22879e-07, No Iterations 4
diagonal:  Solving for rho, Initial residual = 0, Final residual = 0, No Iterations 0
time step continuity errors : sum local = 2.42689e-08, global = 1.44803e-10, cumulative = -1.77079e-07
DILUPBiCGStab:  Solving for omega, Initial residual = 9.20311e-05, Final residual = 7.58618e-09, No Iterations 2
DILUPBiCGStab:  Solving for k, Initial residual = 0.00613663, Final residual = 8.97084e-09, No Iterations 2

ExecutionTime = 3.05 s  ClockTime = 3 s

    Overall     = 0.00135831, 0.01
Time = 272

diagonal:  Solving for rho, Initial residual = 0, Final residual = 0, No Iterations 0

Execution time for mesh.update() = 0 s

DILUPBiCGStab:  Solving for Ux, Initial residual = 0.00575208, Final residual = 1.69294e-09, No Iterations 3
DILUPBiCGStab:  Solving for Uy, Initial residual = 0.00710517, Final residual = 2.77428e-09, No Iterations 3
DILUPBiCGStab:  Solving for O2, Initial residual = 0.00346474, Final residual = 1.73089e-09, No Iterations 3
DILUPBiCGStab:  Solving for H2O, Initial residual = 0.00346474, Final residual = 1.73088e-09, No Iterations 3
DILUPBiCGStab:  Solving for CH4, Initial residual = 0, Final residual = 0, No Iterations 0
DILUPBiCGStab:  Solving for CO2, Initial residual = 0.00346474, Final residual = 1.73088e-09, No Iterations 3
DILUPBiCGStab:  Solving for h, Initial residual = 0.00388365, Final residual = 2.10214e-09, No Iterations 3
min/max(T) = 300, 1044.97
GAMGPCG:  Solving for p_rgh, Initial residual = 0.0238174, Final residual = 3.01358e-07, No Iterations 5
diagonal:  Solving for rho, Initial residual = 0, Final residual = 0, No Iterations 0
time step continuity errors : sum local = 1.74743e-08, global = -7.00499e-10, cumulative = -1.77779e-07
GAMGPCG:  Solving for p_rgh, Initial residual = 0.00322593, Final residual = 4.58842e-07, No Iterations 4
diagonal:  Solving for rho, Initial residual = 0, Final residual = 0, No Iterations 0
time step continuity errors : sum local = 2.62727e-08, global = 4.27714e-10, cumulative = -1.77352e-07
DILUPBiCGStab:  Solving for omega, Initial residual = 9.20075e-05, Final residual = 7.45771e-09, No Iterations 2
DILUPBiCGStab:  Solving for k, Initial residual = 0.00615232, Final residual = 8.59761e-09, No Iterations 2

ExecutionTime = 3.16 s  ClockTime = 3 s

    Overall     = 0.00135928, 0.01
Time = 273

diagonal:  Solving for rho, Initial residual = 0, Final residual = 0, No Iterations 0

Execution time for mesh.update() = 0 s

DILUPBiCGStab:  Solving for Ux, Initial residual = 0.0057503, Final residual = 1.65227e-09, No Iterations 3
DILUPBiCGStab:  Solving for Uy, Initial residual = 0.00707148, Final residual = 2.78761e-09, No Iterations 3
DILUPBiCGStab:  Solving for O2, Initial residual = 0.00348244, Final residual = 2.1486e-09, No Iterations 3
DILUPBiCGStab:  Solving for H2O, Initial residual = 0.00348244, Final residual = 2.14851e-09, No Iterations 3
DILUPBiCGStab:  Solving for CH4, Initial residual = 0, Final residual = 0, No Iterations 0
DILUPBiCGStab:  Solving for CO2, Initial residual = 0.00348244, Final residual = 2.14851e-09, No Iterations 3
DILUPBiCGStab:  Solving for h, Initial residual = 0.00390108, Final residual = 2.26408e-09, No Iterations 3
min/max(T) = 300, 1044.97
GAMGPCG:  Solving for p_rgh, Initial residual = 0.0241736, Final residual = 3.92948e-07, No Iterations 5
diagonal:  Solving for rho, Initial residual = 0, Final residual = 0, No Iterations 0
time step continuity errors : sum local = 2.28701e-08, global = -1.18698e-09, cumulative = -1.78539e-07
GAMGPCG:  Solving for p_rgh, Initial residual = 0.00326675, Final residual = 4.87523e-07, No Iterations 4
diagonal:  Solving for rho, Initial residual = 0, Final residual = 0, No Iterations 0
time step continuity errors : sum local = 2.7798e-08, global = 5.32783e-10, cumulative = -1.78006e-07
DILUPBiCGStab:  Solving for omega, Initial residual = 9.28743e-05, Final residual = 7.24208e-09, No Iterations 2
DILUPBiCGStab:  Solving for k, Initial residual = 0.00615598, Final residual = 8.14809e-09, No Iterations 2

ExecutionTime = 3.28 s  ClockTime = 3 s

    Overall     = 0.00134928, 0.01
Time = 274

diagonal:  Solving for rho, Initial residual = 0, Final residual = 0, No Iterations 0

Execution time for mesh.update() = 0 s

DILUPBiCGStab:  Solving for Ux, Initial residual = 0.00577, Final residual = 1.73206e-09, No Iterations 3
DILUPBiCGStab:  Solving for Uy, Initial residual = 0.00708, Final residual = 2.79164e-09, No Iterations 3
DILUPBiCGStab:  Solving for O2, Initial residual = 0.00350327, Final residual = 9.11682e-09, No Iterations 2
DILUPBiCGStab:  Solving for H2O, Initial residual = 0.00350327, Final residual = 9.11693e-09, No Iterations 2
DILUPBiCGStab:  Solving for CH4, Initial residual = 0, Final residual = 0, No Iterations 0
DILUPBiCGStab:  Solving for CO2, Initial residual = 0.00350327, Final residual = 9.11693e-09, No Iterations 2
DILUPBiCGStab:  Solving for h, Initial residual = 0.00392804, Final residual = 9.70716e-09, No Iterations 2
min/max(T) = 300, 1044.97
GAMGPCG:  Solving for p_rgh, Initial residual = 0.0241339, Final residual = 4.17304e-07, No Iterations 5
diagonal:  Solving for rho, Initial residual = 0, Final residual = 0, No Iterations 0
time step continuity errors : sum local = 2.41664e-08, global = -1.43974e-09, cumulative = -1.79445e-07
GAMGPCG:  Solving for p_rgh, Initial residual = 0.00328031, Final residual = 4.96864e-07, No Iterations 4
diagonal:  Solving for rho, Initial residual = 0, Final residual = 0, No Iterations 0
time step continuity errors : sum local = 2.82323e-08, global = 5.55253e-10, cumulative = -1.7889e-07
DILUPBiCGStab:  Solving for omega, Initial residual = 9.2041e-05, Final residual = 7.22789e-09, No Iterations 2
DILUPBiCGStab:  Solving for k, Initial residual = 0.0061849, Final residual = 8.34489e-09, No Iterations 2

ExecutionTime = 3.4 s  ClockTime = 3 s

    Overall     = 0.00135037, 0.01
Time = 275

diagonal:  Solving for rho, Initial residual = 0, Final residual = 0, No Iterations 0

Execution time for mesh.update() = 0 s

DILUPBiCGStab:  Solving for Ux, Initial residual = 0.00576996, Final residual = 1.51299e-09, No Iterations 3
DILUPBiCGStab:  Solving for Uy, Initial residual = 0.00702008, Final residual = 2.52027e-09, No Iterations 3
DILUPBiCGStab:  Solving for O2, Initial residual = 0.0035099, Final residual = 9.47466e-09, No Iterations 2
DILUPBiCGStab:  Solving for H2O, Initial residual = 0.0035099, Final residual = 9.47479e-09, No Iterations 2
DILUPBiCGStab:  Solving for CH4, Initial residual = 0, Final residual = 0, No Iterations 0
DILUPBiCGStab:  Solving for CO2, Initial residual = 0.0035099, Final residual = 9.47479e-09, No Iterations 2
DILUPBiCGStab:  Solving for h, Initial residual = 0.00393225, Final residual = 9.85301e-09, No Iterations 2
min/max(T) = 300, 1044.97
GAMGPCG:  Solving for p_rgh, Initial residual = 0.0246696, Final residual = 4.41178e-07, No Iterations 5
diagonal:  Solving for rho, Initial residual = 0, Final residual = 0, No Iterations 0
time step continuity errors : sum local = 2.54662e-08, global = -1.61918e-09, cumulative = -1.80509e-07
GAMGPCG:  Solving for p_rgh, Initial residual = 0.00318725, Final residual = 5.14667e-07, No Iterations 4
diagonal:  Solving for rho, Initial residual = 0, Final residual = 0, No Iterations 0
time step continuity errors : sum local = 2.91888e-08, global = 5.07517e-10, cumulative = -1.80002e-07
DILUPBiCGStab:  Solving for omega, Initial residual = 9.20945e-05, Final residual = 6.63067e-09, No Iterations 2
DILUPBiCGStab:  Solving for k, Initial residual = 0.00619924, Final residual = 8.05004e-09, No Iterations 2

ExecutionTime = 3.52 s  ClockTime = 3 s

    Overall     = 0.00134014, 0.01
Time = 276

diagonal:  Solving for rho, Initial residual = 0, Final residual = 0, No Iterations 0

Execution time for mesh.update() = 0 s

DILUPBiCGStab:  Solving for Ux, Initial residual = 0.00578935, Final residual = 1.71169e-09, No Iterations 3
DILUPBiCGStab:  Solving for Uy, Initial residual = 0.00699843, Final residual = 2.47131e-09, No Iterations 3
DILUPBiCGStab:  Solving for O2, Initial residual = 0.0035279, Final residual = 9.13445e-09, No Iterations 2
DILUPBiCGStab:  Solving for H2O, Initial residual = 0.0035279, Final residual = 9.13457e-09, No Iterations 2
DILUPBiCGStab:  Solving for CH4, Initial residual = 0, Final residual = 0, No Iterations 0
DILUPBiCGStab:  Solving for CO2, Initial residual = 0.0035279, Final residual = 9.13457e-09, No Iterations 2
DILUPBiCGStab:  Solving for h, Initial residual = 0.00395708, Final residual = 9.7386e-09, No Iterations 2
min/max(T) = 300, 1044.97
GAMGPCG:  Solving for p_rgh, Initial residual = 0.02476, Final residual = 3.99769e-07, No Iterations 5
diagonal:  Solving for rho, Initial residual = 0, Final residual = 0, No Iterations 0
time step continuity errors : sum local = 2.30449e-08, global = -2.10129e-09, cumulative = -1.82103e-07
GAMGPCG:  Solving for p_rgh, Initial residual = 0.00328682, Final residual = 4.97846e-07, No Iterations 4
diagonal:  Solving for rho, Initial residual = 0, Final residual = 0, No Iterations 0
time step continuity errors : sum local = 2.82199e-08, global = 8.09338e-10, cumulative = -1.81294e-07
DILUPBiCGStab:  Solving for omega, Initial residual = 9.21196e-05, Final residual = 6.72813e-09, No Iterations 2
DILUPBiCGStab:  Solving for k, Initial residual = 0.00622233, Final residual = 8.22737e-09, No Iterations 2

ExecutionTime = 3.64 s  ClockTime = 3 s

    Overall     = 0.0013404, 0.01
Time = 277

diagonal:  Solving for rho, Initial residual = 0, Final residual = 0, No Iterations 0

Execution time for mesh.update() = 0 s

DILUPBiCGStab:  Solving for Ux, Initial residual = 0.00579955, Final residual = 1.55994e-09, No Iterations 3
DILUPBiCGStab:  Solving for Uy, Initial residual = 0.00694978, Final residual = 2.45404e-09, No Iterations 3
DILUPBiCGStab:  Solving for O2, Initial residual = 0.00354, Final residual = 8.65327e-09, No Iterations 2
DILUPBiCGStab:  Solving for H2O, Initial residual = 0.00354, Final residual = 8.65339e-09, No Iterations 2
DILUPBiCGStab:  Solving for CH4, Initial residual = 0, Final residual = 0, No Iterations 0
DILUPBiCGStab:  Solving for CO2, Initial residual = 0.00354, Final residual = 8.65339e-09, No Iterations 2
DILUPBiCGStab:  Solving for h, Initial residual = 0.00397804, Final residual = 9.03113e-09, No Iterations 2
min/max(T) = 300, 1044.97
GAMGPCG:  Solving for p_rgh, Initial residual = 0.0251148, Final residual = 3.94194e-07, No Iterations 5
diagonal:  Solving for rho, Initial residual = 0, Final residual = 0, No Iterations 0
time step continuity errors : sum local = 2.25491e-08, global = -2.43013e-09, cumulative = -1.83724e-07
GAMGPCG:  Solving for p_rgh, Initial residual = 0.00318815, Final residual = 4.70339e-07, No Iterations 4
diagonal:  Solving for rho, Initial residual = 0, Final residual = 0, No Iterations 0
time step continuity errors : sum local = 2.65133e-08, global = 9.36695e-10, cumulative = -1.82787e-07
DILUPBiCGStab:  Solving for omega, Initial residual = 9.18763e-05, Final residual = 6.85821e-09, No Iterations 2
DILUPBiCGStab:  Solving for k, Initial residual = 0.00625773, Final residual = 7.82495e-09, No Iterations 2

ExecutionTime = 3.75 s  ClockTime = 4 s

    Overall     = 0.00133062, 0.01
Time = 278

diagonal:  Solving for rho, Initial residual = 0, Final residual = 0, No Iterations 0

Execution time for mesh.update() = 0 s

DILUPBiCGStab:  Solving for Ux, Initial residual = 0.00582889, Final residual = 1.56235e-09, No Iterations 3
DILUPBiCGStab:  Solving for Uy, Initial residual = 0.00694693, Final residual = 2.07114e-09, No Iterations 3
DILUPBiCGStab:  Solving for O2, Initial residual = 0.00355577, Final residual = 8.62e-09, No Iterations 2
DILUPBiCGStab:  Solving for H2O, Initial residual = 0.00355577, Final residual = 8.6201e-09, No Iterations 2
DILUPBiCGStab:  Solving for CH4, Initial residual = 0, Final residual = 0, No Iterations 0
DILUPBiCGStab:  Solving for CO2, Initial residual = 0.00355577, Final residual = 8.6201e-09, No Iterations 2
DILUPBiCGStab:  Solving for h, Initial residual = 0.00400156, Final residual = 9.02856e-09, No Iterations 2
min/max(T) = 300, 1044.97
GAMGPCG:  Solving for p_rgh, Initial residual = 0.0245188, Final residual = 3.49877e-07, No Iterations 5
diagonal:  Solving for rho, Initial residual = 0, Final residual = 0, No Iterations 0
time step continuity errors : sum local = 1.99447e-08, global = -2.25567e-09, cumulative = -1.85043e-07
GAMGPCG:  Solving for p_rgh, Initial residual = 0.0032459, Final residual = 4.24566e-07, No Iterations 4
diagonal:  Solving for rho, Initial residual = 0, Final residual = 0, No Iterations 0
time step continuity errors : sum local = 2.38086e-08, global = 1.14324e-09, cumulative = -1.839e-07
DILUPBiCGStab:  Solving for omega, Initial residual = 9.24286e-05, Final residual = 6.89287e-09, No Iterations 2
DILUPBiCGStab:  Solving for k, Initial residual = 0.00629247, Final residual = 7.72332e-09, No Iterations 2

ExecutionTime = 3.87 s  ClockTime = 4 s

    Overall     = 0.00133022, 0.01
Time = 279

diagonal:  Solving for rho, Initial residual = 0, Final residual = 0, No Iterations 0

Execution time for mesh.update() = 0 s

DILUPBiCGStab:  Solving for Ux, Initial residual = 0.00584811, Final residual = 1.46491e-09, No Iterations 3
DILUPBiCGStab:  Solving for Uy, Initial residual = 0.00690103, Final residual = 2.1998e-09, No Iterations 3
DILUPBiCGStab:  Solving for O2, Initial residual = 0.00357221, Final residual = 8.98866e-09, No Iterations 2
DILUPBiCGStab:  Solving for H2O, Initial residual = 0.00357221, Final residual = 8.98858e-09, No Iterations 2
DILUPBiCGStab:  Solving for CH4, Initial residual = 0, Final residual = 0, No Iterations 0
DILUPBiCGStab:  Solving for CO2, Initial residual = 0.00357221, Final residual = 8.98857e-09, No Iterations 2
DILUPBiCGStab:  Solving for h, Initial residual = 0.004022, Final residual = 9.70257e-09, No Iterations 2
min/max(T) = 300, 1044.97
GAMGPCG:  Solving for p_rgh, Initial residual = 0.024743, Final residual = 3.20959e-07, No Iterations 5
diagonal:  Solving for rho, Initial residual = 0, Final residual = 0, No Iterations 0
time step continuity errors : sum local = 1.81123e-08, global = -2.27165e-09, cumulative = -1.86171e-07
GAMGPCG:  Solving for p_rgh, Initial residual = 0.00327263, Final residual = 3.90921e-07, No Iterations 4
diagonal:  Solving for rho, Initial residual = 0, Final residual = 0, No Iterations 0
time step continuity errors : sum local = 2.16675e-08, global = 1.22e-09, cumulative = -1.84951e-07
DILUPBiCGStab:  Solving for omega, Initial residual = 9.18078e-05, Final residual = 7.08924e-09, No Iterations 2
DILUPBiCGStab:  Solving for k, Initial residual = 0.00632116, Final residual = 7.6962e-09, No Iterations 2

ExecutionTime = 3.99 s  ClockTime = 4 s

    Overall     = 0.0013197, 0.01
Time = 280

diagonal:  Solving for rho, Initial residual = 0, Final residual = 0, No Iterations 0

Execution time for mesh.update() = 0 s

DILUPBiCGStab:  Solving for Ux, Initial residual = 0.00586114, Final residual = 1.56421e-09, No Iterations 3
DILUPBiCGStab:  Solving for Uy, Initial residual = 0.00690186, Final residual = 2.11284e-09, No Iterations 3
GAMGPCG:  Solving for G, Initial residual = 0.12919, Final residual = 6.1858e-05, No Iterations 6
DILUPBiCGStab:  Solving for O2, Initial residual = 0.00359988, Final residual = 9.17983e-09, No Iterations 2
DILUPBiCGStab:  Solving for H2O, Initial residual = 0.00359988, Final residual = 9.17973e-09, No Iterations 2
DILUPBiCGStab:  Solving for CH4, Initial residual = 0, Final residual = 0, No Iterations 0
DILUPBiCGStab:  Solving for CO2, Initial residual = 0.00359988, Final residual = 9.17972e-09, No Iterations 2
DILUPBiCGStab:  Solving for h, Initial residual = 0.00405435, Final residual = 9.68669e-09, No Iterations 2
min/max(T) = 300, 1044.97
GAMGPCG:  Solving for p_rgh, Initial residual = 0.0242731, Final residual = 2.75149e-07, No Iterations 5
diagonal:  Solving for rho, Initial residual = 0, Final residual = 0, No Iterations 0
time step continuity errors : sum local = 1.5484e-08, global = -2.02753e-09, cumulative = -1.86979e-07
GAMGPCG:  Solving for p_rgh, Initial residual = 0.00334224, Final residual = 3.96866e-07, No Iterations 4
diagonal:  Solving for rho, Initial residual = 0, Final residual = 0, No Iterations 0
time step continuity errors : sum local = 2.20488e-08, global = 1.34932e-09, cumulative = -1.8563e-07
DILUPBiCGStab:  Solving for omega, Initial residual = 9.18366e-05, Final residual = 7.03164e-09, No Iterations 2
DILUPBiCGStab:  Solving for k, Initial residual = 0.00635476, Final residual = 7.86723e-09, No Iterations 2

ExecutionTime = 4.25 s  ClockTime = 4 s

    Overall     = 0.00131817, 0.01
Time = 281

diagonal:  Solving for rho, Initial residual = 0, Final residual = 0, No Iterations 0

Execution time for mesh.update() = 0 s

DILUPBiCGStab:  Solving for Ux, Initial residual = 0.00588134, Final residual = 1.30121e-09, No Iterations 3
DILUPBiCGStab:  Solving for Uy, Initial residual = 0.00685661, Final residual = 1.98113e-09, No Iterations 3
DILUPBiCGStab:  Solving for O2, Initial residual = 0.00361073, Final residual = 8.82018e-09, No Iterations 2
DILUPBiCGStab:  Solving for H2O, Initial residual = 0.00361073, Final residual = 8.82004e-09, No Iterations 2
DILUPBiCGStab:  Solving for CH4, Initial residual = 0, Final residual = 0, No Iterations 0
DILUPBiCGStab:  Solving for CO2, Initial residual = 0.00361073, Final residual = 8.82004e-09, No Iterations 2
DILUPBiCGStab:  Solving for h, Initial residual = 0.00407392, Final residual = 9.60802e-09, No Iterations 2
min/max(T) = 300, 1044.97
GAMGPCG:  Solving for p_rgh, Initial residual = 0.0244443, Final residual = 2.41255e-07, No Iterations 5
diagonal:  Solving for rho, Initial residual = 0, Final residual = 0, No Iterations 0
time step continuity errors : sum local = 1.35664e-08, global = -2.01644e-09, cumulative = -1.87646e-07
GAMGPCG:  Solving for p_rgh, Initial residual = 0.00336813, Final residual = 3.62394e-07, No Iterations 4
diagonal:  Solving for rho, Initial residual = 0, Final residual = 0, No Iterations 0
time step continuity errors : sum local = 1.99808e-08, global = 1.42824e-09, cumulative = -1.86218e-07
DILUPBiCGStab:  Solving for omega, Initial residual = 9.10703e-05, Final residual = 6.34291e-09, No Iterations 2
DILUPBiCGStab:  Solving for k, Initial residual = 0.00638841, Final residual = 7.82582e-09, No Iterations 2

ExecutionTime = 4.36 s  ClockTime = 4 s

    Overall     = 0.00130756, 0.01
Time = 282

diagonal:  Solving for rho, Initial residual = 0, Final residual = 0, No Iterations 0

Execution time for mesh.update() = 0 s

DILUPBiCGStab:  Solving for Ux, Initial residual = 0.00589206, Final residual = 1.21829e-09, No Iterations 3
DILUPBiCGStab:  Solving for Uy, Initial residual = 0.00685432, Final residual = 2.07901e-09, No Iterations 3
DILUPBiCGStab:  Solving for O2, Initial residual = 0.00364197, Final residual = 9.16531e-09, No Iterations 2
DILUPBiCGStab:  Solving for H2O, Initial residual = 0.00364196, Final residual = 9.16514e-09, No Iterations 2
DILUPBiCGStab:  Solving for CH4, Initial residual = 0, Final residual = 0, No Iterations 0
DILUPBiCGStab:  Solving for CO2, Initial residual = 0.00364196, Final residual = 9.16514e-09, No Iterations 2
DILUPBiCGStab:  Solving for h, Initial residual = 0.00411023, Final residual = 9.55956e-09, No Iterations 2
min/max(T) = 300, 1044.97
GAMGPCG:  Solving for p_rgh, Initial residual = 0.024249, Final residual = 1.94396e-07, No Iterations 5
diagonal:  Solving for rho, Initial residual = 0, Final residual = 0, No Iterations 0
time step continuity errors : sum local = 1.0806e-08, global = -1.69e-09, cumulative = -1.87908e-07
GAMGPCG:  Solving for p_rgh, Initial residual = 0.00327168, Final residual = 3.61364e-07, No Iterations 4
diagonal:  Solving for rho, Initial residual = 0, Final residual = 0, No Iterations 0
time step continuity errors : sum local = 1.99005e-08, global = 1.45438e-09, cumulative = -1.86453e-07
DILUPBiCGStab:  Solving for omega, Initial residual = 9.20446e-05, Final residual = 6.24529e-09, No Iterations 2
DILUPBiCGStab:  Solving for k, Initial residual = 0.00643562, Final residual = 7.83589e-09, No Iterations 2

ExecutionTime = 4.48 s  ClockTime = 4 s

    Overall     = 0.00130565, 0.01
Time = 283

diagonal:  Solving for rho, Initial residual = 0, Final residual = 0, No Iterations 0

Execution time for mesh.update() = 0 s

DILUPBiCGStab:  Solving for Ux, Initial residual = 0.00590459, Final residual = 1.2548e-09, No Iterations 3
DILUPBiCGStab:  Solving for Uy, Initial residual = 0.00680478, Final residual = 2.14442e-09, No Iterations 3
DILUPBiCGStab:  Solving for O2, Initial residual = 0.00365642, Final residual = 8.9874e-09, No Iterations 2
DILUPBiCGStab:  Solving for H2O, Initial residual = 0.00365641, Final residual = 8.98724e-09, No Iterations 2
DILUPBiCGStab:  Solving for CH4, Initial residual = 0, Final residual = 0, No Iterations 0
DILUPBiCGStab:  Solving for CO2, Initial residual = 0.00365641, Final residual = 8.98724e-09, No Iterations 2
DILUPBiCGStab:  Solving for h, Initial residual = 0.00413156, Final residual = 9.71739e-09, No Iterations 2
min/max(T) = 300, 1044.97
GAMGPCG:  Solving for p_rgh, Initial residual = 0.024229, Final residual = 1.48334e-07, No Iterations 5
diagonal:  Solving for rho, Initial residual = 0, Final residual = 0, No Iterations 0
time step continuity errors : sum local = 8.26756e-09, global = -1.46733e-09, cumulative = -1.87921e-07
GAMGPCG:  Solving for p_rgh, Initial residual = 0.00331093, Final residual = 3.45453e-07, No Iterations 4
diagonal:  Solving for rho, Initial residual = 0, Final residual = 0, No Iterations 0
time step continuity errors : sum local = 1.90105e-08, global = 1.57471e-09, cumulative = -1.86346e-07
DILUPBiCGStab:  Solving for omega, Initial residual = 9.15473e-05, Final residual = 6.1918e-09, No Iterations 2
DILUPBiCGStab:  Solving for k, Initial residual = 0.00647993, Final residual = 7.73868e-09, No Iterations 2

ExecutionTime = 4.6 s  ClockTime = 4 s

    Overall     = 0.0012962, 0.01
Time = 284

diagonal:  Solving for rho, Initial residual = 0, Final residual = 0, No Iterations 0

Execution time for mesh.update() = 0 s

DILUPBiCGStab:  Solving for Ux, Initial residual = 0.00591395, Final residual = 1.16117e-09, No Iterations 3
DILUPBiCGStab:  Solving for Uy, Initial residual = 0.00681557, Final residual = 1.94176e-09, No Iterations 3
DILUPBiCGStab:  Solving for O2, Initial residual = 0.00368643, Final residual = 8.60161e-09, No Iterations 2
DILUPBiCGStab:  Solving for H2O, Initial residual = 0.00368642, Final residual = 8.60139e-09, No Iterations 2
DILUPBiCGStab:  Solving for CH4, Initial residual = 0, Final residual = 0, No Iterations 0
DILUPBiCGStab:  Solving for CO2, Initial residual = 0.00368642, Final residual = 8.60139e-09, No Iterations 2
DILUPBiCGStab:  Solving for h, Initial residual = 0.0041729, Final residual = 9.1521e-09, No Iterations 2
min/max(T) = 300, 1044.97
GAMGPCG:  Solving for p_rgh, Initial residual = 0.0243938, Final residual = 1.03899e-07, No Iterations 5
diagonal:  Solving for rho, Initial residual = 0, Final residual = 0, No Iterations 0
time step continuity errors : sum local = 5.78079e-09, global = -9.35677e-10, cumulative = -1.87282e-07
GAMGPCG:  Solving for p_rgh, Initial residual = 0.00326471, Final residual = 3.69645e-07, No Iterations 4
diagonal:  Solving for rho, Initial residual = 0, Final residual = 0, No Iterations 0
time step continuity errors : sum local = 2.01768e-08, global = 1.58558e-09, cumulative = -1.85696e-07
DILUPBiCGStab:  Solving for omega, Initial residual = 9.23031e-05, Final residual = 5.58788e-09, No Iterations 2
DILUPBiCGStab:  Solving for k, Initial residual = 0.0065294, Final residual = 7.87326e-09, No Iterations 2

ExecutionTime = 4.72 s  ClockTime = 5 s

    Overall     = 0.00129322, 0.01
Time = 285

diagonal:  Solving for rho, Initial residual = 0, Final residual = 0, No Iterations 0

Execution time for mesh.update() = 0 s

DILUPBiCGStab:  Solving for Ux, Initial residual = 0.005925, Final residual = 1.14846e-09, No Iterations 3
DILUPBiCGStab:  Solving for Uy, Initial residual = 0.0067746, Final residual = 2.10348e-09, No Iterations 3
DILUPBiCGStab:  Solving for O2, Initial residual = 0.00372132, Final residual = 8.12594e-09, No Iterations 2
DILUPBiCGStab:  Solving for H2O, Initial residual = 0.00372131, Final residual = 8.12581e-09, No Iterations 2
DILUPBiCGStab:  Solving for CH4, Initial residual = 0, Final residual = 0, No Iterations 0
DILUPBiCGStab:  Solving for CO2, Initial residual = 0.00372131, Final residual = 8.1258e-09, No Iterations 2
DILUPBiCGStab:  Solving for h, Initial residual = 0.00421785, Final residual = 8.8694e-09, No Iterations 2
min/max(T) = 300, 1044.97
GAMGPCG:  Solving for p_rgh, Initial residual = 0.0243609, Final residual = 1.06568e-07, No Iterations 5
diagonal:  Solving for rho, Initial residual = 0, Final residual = 0, No Iterations 0
time step continuity errors : sum local = 5.92917e-09, global = -9.42307e-10, cumulative = -1.86638e-07
GAMGPCG:  Solving for p_rgh, Initial residual = 0.00325345, Final residual = 3.48455e-07, No Iterations 4
diagonal:  Solving for rho, Initial residual = 0, Final residual = 0, No Iterations 0
time step continuity errors : sum local = 1.90398e-08, global = 1.72111e-09, cumulative = -1.84917e-07
DILUPBiCGStab:  Solving for omega, Initial residual = 9.2544e-05, Final residual = 5.83636e-09, No Iterations 2
DILUPBiCGStab:  Solving for k, Initial residual = 0.00657503, Final residual = 7.6192e-09, No Iterations 2

ExecutionTime = 4.84 s  ClockTime = 5 s

    Overall     = 0.00128707, 0.01
Time = 286

diagonal:  Solving for rho, Initial residual = 0, Final residual = 0, No Iterations 0

Execution time for mesh.update() = 0 s

DILUPBiCGStab:  Solving for Ux, Initial residual = 0.00592702, Final residual = 1.2363e-09, No Iterations 3
DILUPBiCGStab:  Solving for Uy, Initial residual = 0.00678482, Final residual = 1.90671e-09, No Iterations 3
DILUPBiCGStab:  Solving for O2, Initial residual = 0.0037514, Final residual = 7.71382e-09, No Iterations 2
DILUPBiCGStab:  Solving for H2O, Initial residual = 0.00375139, Final residual = 7.71366e-09, No Iterations 2
DILUPBiCGStab:  Solving for CH4, Initial residual = 0, Final residual = 0, No Iterations 0
DILUPBiCGStab:  Solving for CO2, Initial residual = 0.00375139, Final residual = 7.71366e-09, No Iterations 2
DILUPBiCGStab:  Solving for h, Initial residual = 0.00425415, Final residual = 8.19911e-09, No Iterations 2
min/max(T) = 300, 1044.97
GAMGPCG:  Solving for p_rgh, Initial residual = 0.0241828, Final residual = 9.61877e-08, No Iterations 5
diagonal:  Solving for rho, Initial residual = 0, Final residual = 0, No Iterations 0
time step continuity errors : sum local = 5.33759e-09, global = -7.38084e-10, cumulative = -1.85655e-07
GAMGPCG:  Solving for p_rgh, Initial residual = 0.00326998, Final residual = 3.31768e-07, No Iterations 4
diagonal:  Solving for rho, Initial residual = 0, Final residual = 0, No Iterations 0
time step continuity errors : sum local = 1.80527e-08, global = 1.58645e-09, cumulative = -1.84069e-07
DILUPBiCGStab:  Solving for omega, Initial residual = 9.29518e-05, Final residual = 5.61312e-09, No Iterations 2
DILUPBiCGStab:  Solving for k, Initial residual = 0.00662225, Final residual = 7.62103e-09, No Iterations 2

ExecutionTime = 4.95 s  ClockTime = 5 s

    Overall     = 0.00128389, 0.01
Time = 287

diagonal:  Solving for rho, Initial residual = 0, Final residual = 0, No Iterations 0

Execution time for mesh.update() = 0 s

DILUPBiCGStab:  Solving for Ux, Initial residual = 0.00595548, Final residual = 1.55105e-09, No Iterations 3
DILUPBiCGStab:  Solving for Uy, Initial residual = 0.00676362, Final residual = 1.94608e-09, No Iterations 3
DILUPBiCGStab:  Solving for O2, Initial residual = 0.00377517, Final residual = 7.69112e-09, No Iterations 2
DILUPBiCGStab:  Solving for H2O, Initial residual = 0.00377516, Final residual = 7.69097e-09, No Iterations 2
DILUPBiCGStab:  Solving for CH4, Initial residual = 0, Final residual = 0, No Iterations 0
DILUPBiCGStab:  Solving for CO2, Initial residual = 0.00377516, Final residual = 7.69097e-09, No Iterations 2
DILUPBiCGStab:  Solving for h, Initial residual = 0.00429279, Final residual = 8.39192e-09, No Iterations 2
min/max(T) = 300, 1044.97
GAMGPCG:  Solving for p_rgh, Initial residual = 0.0243524, Final residual = 9.59192e-08, No Iterations 5
diagonal:  Solving for rho, Initial residual = 0, Final residual = 0, No Iterations 0
time step continuity errors : sum local = 5.26227e-09, global = -7.64595e-10, cumulative = -1.84834e-07
GAMGPCG:  Solving for p_rgh, Initial residual = 0.00323041, Final residual = 3.38596e-07, No Iterations 4
diagonal:  Solving for rho, Initial residual = 0, Final residual = 0, No Iterations 0
time step continuity errors : sum local = 1.8383e-08, global = 1.61504e-09, cumulative = -1.83218e-07
DILUPBiCGStab:  Solving for omega, Initial residual = 9.31197e-05, Final residual = 5.45999e-09, No Iterations 2
DILUPBiCGStab:  Solving for k, Initial residual = 0.00669032, Final residual = 7.50021e-09, No Iterations 2

ExecutionTime = 5.07 s  ClockTime = 5 s

    Overall     = 0.00128055, 0.01
Time = 288

diagonal:  Solving for rho, Initial residual = 0, Final residual = 0, No Iterations 0

Execution time for mesh.update() = 0 s

DILUPBiCGStab:  Solving for Ux, Initial residual = 0.00597319, Final residual = 1.28147e-09, No Iterations 3
DILUPBiCGStab:  Solving for Uy, Initial residual = 0.00675081, Final residual = 1.95673e-09, No Iterations 3
DILUPBiCGStab:  Solving for O2, Initial residual = 0.00380582, Final residual = 7.66559e-09, No Iterations 2
DILUPBiCGStab:  Solving for H2O, Initial residual = 0.00380582, Final residual = 7.66548e-09, No Iterations 2
DILUPBiCGStab:  Solving for CH4, Initial residual = 0, Final residual = 0, No Iterations 0
DILUPBiCGStab:  Solving for CO2, Initial residual = 0.00380582, Final residual = 7.66548e-09, No Iterations 2
DILUPBiCGStab:  Solving for h, Initial residual = 0.0043333, Final residual = 8.02077e-09, No Iterations 2
min/max(T) = 300, 1044.97
GAMGPCG:  Solving for p_rgh, Initial residual = 0.0246933, Final residual = 9.68917e-07, No Iterations 4
diagonal:  Solving for rho, Initial residual = 0, Final residual = 0, No Iterations 0
time step continuity errors : sum local = 5.43244e-08, global = -4.02578e-09, cumulative = -1.87244e-07
GAMGPCG:  Solving for p_rgh, Initial residual = 0.0032414, Final residual = 3.20957e-07, No Iterations 4
diagonal:  Solving for rho, Initial residual = 0, Final residual = 0, No Iterations 0
time step continuity errors : sum local = 1.73338e-08, global = 1.55966e-09, cumulative = -1.85685e-07
DILUPBiCGStab:  Solving for omega, Initial residual = 9.34504e-05, Final residual = 5.52574e-09, No Iterations 2
DILUPBiCGStab:  Solving for k, Initial residual = 0.0067541, Final residual = 7.31808e-09, No Iterations 2

ExecutionTime = 5.18 s  ClockTime = 5 s

    Overall     = 0.00127918, 0.01
Time = 289

diagonal:  Solving for rho, Initial residual = 0, Final residual = 0, No Iterations 0

Execution time for mesh.update() = 0 s

DILUPBiCGStab:  Solving for Ux, Initial residual = 0.00601371, Final residual = 1.51375e-09, No Iterations 3
DILUPBiCGStab:  Solving for Uy, Initial residual = 0.00676545, Final residual = 1.98549e-09, No Iterations 3
DILUPBiCGStab:  Solving for O2, Initial residual = 0.00384249, Final residual = 7.63978e-09, No Iterations 2
DILUPBiCGStab:  Solving for H2O, Initial residual = 0.00384249, Final residual = 7.6397e-09, No Iterations 2
DILUPBiCGStab:  Solving for CH4, Initial residual = 0, Final residual = 0, No Iterations 0
DILUPBiCGStab:  Solving for CO2, Initial residual = 0.00384249, Final residual = 7.63969e-09, No Iterations 2
DILUPBiCGStab:  Solving for h, Initial residual = 0.00438528, Final residual = 8.19976e-09, No Iterations 2
min/max(T) = 300, 1044.97
GAMGPCG:  Solving for p_rgh, Initial residual = 0.0254377, Final residual = 9.09839e-07, No Iterations 4
diagonal:  Solving for rho, Initial residual = 0, Final residual = 0, No Iterations 0
time step continuity errors : sum local = 5.09291e-08, global = -4.17087e-09, cumulative = -1.89855e-07
GAMGPCG:  Solving for p_rgh, Initial residual = 0.00325664, Final residual = 2.85536e-07, No Iterations 4
diagonal:  Solving for rho, Initial residual = 0, Final residual = 0, No Iterations 0
time step continuity errors : sum local = 1.5409e-08, global = 1.56226e-09, cumulative = -1.88293e-07
DILUPBiCGStab:  Solving for omega, Initial residual = 9.34409e-05, Final residual = 5.45973e-09, No Iterations 2
DILUPBiCGStab:  Solving for k, Initial residual = 0.00680057, Final residual = 7.311e-09, No Iterations 2

ExecutionTime = 5.3 s  ClockTime = 5 s

    Overall     = 0.00127858, 0.01
Time = 290

diagonal:  Solving for rho, Initial residual = 0, Final residual = 0, No Iterations 0

Execution time for mesh.update() = 0 s

DILUPBiCGStab:  Solving for Ux, Initial residual = 0.00605115, Final residual = 1.3156e-09, No Iterations 3
DILUPBiCGStab:  Solving for Uy, Initial residual = 0.00678008, Final residual = 1.91667e-09, No Iterations 3
GAMGPCG:  Solving for G, Initial residual = 0.155663, Final residual = 9.34322e-05, No Iterations 6
DILUPBiCGStab:  Solving for O2, Initial residual = 0.00387226, Final residual = 7.6075e-09, No Iterations 2
DILUPBiCGStab:  Solving for H2O, Initial residual = 0.00387225, Final residual = 7.60744e-09, No Iterations 2
DILUPBiCGStab:  Solving for CH4, Initial residual = 0, Final residual = 0, No Iterations 0
DILUPBiCGStab:  Solving for CO2, Initial residual = 0.00387225, Final residual = 7.60744e-09, No Iterations 2
DILUPBiCGStab:  Solving for h, Initial residual = 0.00442759, Final residual = 7.68922e-09, No Iterations 2
min/max(T) = 300, 1044.97
GAMGPCG:  Solving for p_rgh, Initial residual = 0.0261161, Final residual = 9.0348e-07, No Iterations 4
diagonal:  Solving for rho, Initial residual = 0, Final residual = 0, No Iterations 0
time step continuity errors : sum local = 5.0212e-08, global = -4.17457e-09, cumulative = -1.92468e-07
GAMGPCG:  Solving for p_rgh, Initial residual = 0.00354421, Final residual = 3.27385e-07, No Iterations 4
diagonal:  Solving for rho, Initial residual = 0, Final residual = 0, No Iterations 0
time step continuity errors : sum local = 1.74222e-08, global = 1.60882e-09, cumulative = -1.90859e-07
DILUPBiCGStab:  Solving for omega, Initial residual = 9.43189e-05, Final residual = 5.30981e-09, No Iterations 2
DILUPBiCGStab:  Solving for k, Initial residual = 0.00685944, Final residual = 7.43504e-09, No Iterations 2

ExecutionTime = 5.56 s  ClockTime = 5 s

    Overall     = 0.00127911, 0.01
Time = 291

diagonal:  Solving for rho, Initial residual = 0, Final residual = 0, No Iterations 0

Execution time for mesh.update() = 0 s

DILUPBiCGStab:  Solving for Ux, Initial residual = 0.00609326, Final residual = 1.50595e-09, No Iterations 3
DILUPBiCGStab:  Solving for Uy, Initial residual = 0.00681026, Final residual = 2.05755e-09, No Iterations 3
DILUPBiCGStab:  Solving for O2, Initial residual = 0.00391073, Final residual = 7.51159e-09, No Iterations 2
DILUPBiCGStab:  Solving for H2O, Initial residual = 0.00391072, Final residual = 7.51155e-09, No Iterations 2
DILUPBiCGStab:  Solving for CH4, Initial residual = 0, Final residual = 0, No Iterations 0
DILUPBiCGStab:  Solving for CO2, Initial residual = 0.00391072, Final residual = 7.51155e-09, No Iterations 2
DILUPBiCGStab:  Solving for h, Initial residual = 0.00448575, Final residual = 7.82545e-09, No Iterations 2
min/max(T) = 300, 1044.97
GAMGPCG:  Solving for p_rgh, Initial residual = 0.02686, Final residual = 8.69895e-07, No Iterations 4
diagonal:  Solving for rho, Initial residual = 0, Final residual = 0, No Iterations 0
time step continuity errors : sum local = 4.82036e-08, global = -4.61889e-09, cumulative = -1.95478e-07
GAMGPCG:  Solving for p_rgh, Initial residual = 0.00350859, Final residual = 3.11975e-07, No Iterations 4
diagonal:  Solving for rho, Initial residual = 0, Final residual = 0, No Iterations 0
time step continuity errors : sum local = 1.67096e-08, global = 1.76033e-09, cumulative = -1.93718e-07
DILUPBiCGStab:  Solving for omega, Initial residual = 9.47031e-05, Final residual = 5.1855e-09, No Iterations 2
DILUPBiCGStab:  Solving for k, Initial residual = 0.0069328, Final residual = 7.25178e-09, No Iterations 2

ExecutionTime = 5.67 s  ClockTime = 6 s

    Overall     = 0.00128128, 0.01
Time = 292

diagonal:  Solving for rho, Initial residual = 0, Final residual = 0, No Iterations 0

Execution time for mesh.update() = 0 s

DILUPBiCGStab:  Solving for Ux, Initial residual = 0.00612141, Final residual = 1.49835e-09, No Iterations 3
DILUPBiCGStab:  Solving for Uy, Initial residual = 0.00683811, Final residual = 1.72109e-09, No Iterations 3
DILUPBiCGStab:  Solving for O2, Initial residual = 0.00394168, Final residual = 7.92337e-09, No Iterations 2
DILUPBiCGStab:  Solving for H2O, Initial residual = 0.00394167, Final residual = 7.92333e-09, No Iterations 2
DILUPBiCGStab:  Solving for CH4, Initial residual = 0, Final residual = 0, No Iterations 0
DILUPBiCGStab:  Solving for CO2, Initial residual = 0.00394167, Final residual = 7.92333e-09, No Iterations 2
DILUPBiCGStab:  Solving for h, Initial residual = 0.0045313, Final residual = 7.47969e-09, No Iterations 2
min/max(T) = 300, 1044.97
GAMGPCG:  Solving for p_rgh, Initial residual = 0.027672, Final residual = 9.06385e-07, No Iterations 4
diagonal:  Solving for rho, Initial residual = 0, Final residual = 0, No Iterations 0
time step continuity errors : sum local = 4.98888e-08, global = -4.83826e-09, cumulative = -1.98556e-07
GAMGPCG:  Solving for p_rgh, Initial residual = 0.00377766, Final residual = 3.20381e-07, No Iterations 4
diagonal:  Solving for rho, Initial residual = 0, Final residual = 0, No Iterations 0
time step continuity errors : sum local = 1.68226e-08, global = 1.78593e-09, cumulative = -1.9677e-07
DILUPBiCGStab:  Solving for omega, Initial residual = 9.5072e-05, Final residual = 5.44698e-09, No Iterations 2
DILUPBiCGStab:  Solving for k, Initial residual = 0.00698696, Final residual = 7.65116e-09, No Iterations 2

ExecutionTime = 5.79 s  ClockTime = 6 s

    Overall     = 0.0012845, 0.01
Time = 293

diagonal:  Solving for rho, Initial residual = 0, Final residual = 0, No Iterations 0

[...]

Execution time for mesh.update() = 0 s

DILUPBiCGStab:  Solving for Ux, Initial residual = 0.00508193, Final residual = 8.51112e-09, No Iterations 3
DILUPBiCGStab:  Solving for Uy, Initial residual = 0.0045649, Final residual = 5.0408e-09, No Iterations 3
GAMGPCG:  Solving for G, Initial residual = 0.194771, Final residual = 6.70423e-05, No Iterations 6
DILUPBiCGStab:  Solving for O2, Initial residual = 0.00206803, Final residual = 1.90245e-09, No Iterations 3
DILUPBiCGStab:  Solving for H2O, Initial residual = 0.00206803, Final residual = 1.90245e-09, No Iterations 3
DILUPBiCGStab:  Solving for CH4, Initial residual = 0, Final residual = 0, No Iterations 0
DILUPBiCGStab:  Solving for CO2, Initial residual = 0.00206803, Final residual = 1.90245e-09, No Iterations 3
DILUPBiCGStab:  Solving for h, Initial residual = 0.00234059, Final residual = 1.95118e-09, No Iterations 3
min/max(T) = 300, 1044.97
GAMGPCG:  Solving for p_rgh, Initial residual = 0.0202719, Final residual = 1.58467e-07, No Iterations 5
diagonal:  Solving for rho, Initial residual = 0, Final residual = 0, No Iterations 0
time step continuity errors : sum local = 6.01297e-09, global = 1.71874e-10, cumulative = 1.17358e-06
GAMGPCG:  Solving for p_rgh, Initial residual = 0.00296705, Final residual = 5.14717e-07, No Iterations 4
diagonal:  Solving for rho, Initial residual = 0, Final residual = 0, No Iterations 0
time step continuity errors : sum local = 1.8756e-08, global = 2.20185e-09, cumulative = 1.17578e-06
DILUPBiCGStab:  Solving for omega, Initial residual = 8.27864e-05, Final residual = 1.58649e-09, No Iterations 2
DILUPBiCGStab:  Solving for k, Initial residual = 0.00396628, Final residual = 3.46005e-09, No Iterations 3

ExecutionTime = 295.62 s  ClockTime = 296 s

    Overall     = 0.00121707, 0.01
Time = 2491

diagonal:  Solving for rho, Initial residual = 0, Final residual = 0, No Iterations 0

Execution time for mesh.update() = 0 s

DILUPBiCGStab:  Solving for Ux, Initial residual = 0.00515431, Final residual = 7.02475e-09, No Iterations 3
DILUPBiCGStab:  Solving for Uy, Initial residual = 0.00464042, Final residual = 5.32548e-09, No Iterations 3
DILUPBiCGStab:  Solving for O2, Initial residual = 0.00209753, Final residual = 1.71538e-09, No Iterations 3
DILUPBiCGStab:  Solving for H2O, Initial residual = 0.00209753, Final residual = 1.71538e-09, No Iterations 3
DILUPBiCGStab:  Solving for CH4, Initial residual = 0, Final residual = 0, No Iterations 0
DILUPBiCGStab:  Solving for CO2, Initial residual = 0.00209753, Final residual = 1.71538e-09, No Iterations 3
DILUPBiCGStab:  Solving for h, Initial residual = 0.00238125, Final residual = 1.7597e-09, No Iterations 3
min/max(T) = 300, 1044.97
GAMGPCG:  Solving for p_rgh, Initial residual = 0.022375, Final residual = 1.61246e-07, No Iterations 5
diagonal:  Solving for rho, Initial residual = 0, Final residual = 0, No Iterations 0
time step continuity errors : sum local = 6.11705e-09, global = -1.27825e-10, cumulative = 1.17565e-06
GAMGPCG:  Solving for p_rgh, Initial residual = 0.00307396, Final residual = 5.18891e-07, No Iterations 4
diagonal:  Solving for rho, Initial residual = 0, Final residual = 0, No Iterations 0
time step continuity errors : sum local = 1.8731e-08, global = 1.80118e-09, cumulative = 1.17745e-06
DILUPBiCGStab:  Solving for omega, Initial residual = 8.27071e-05, Final residual = 1.50614e-09, No Iterations 2
DILUPBiCGStab:  Solving for k, Initial residual = 0.00394949, Final residual = 3.44841e-09, No Iterations 3

ExecutionTime = 295.74 s  ClockTime = 296 s

    Overall     = 0.0012066, 0.01
Time = 2492

diagonal:  Solving for rho, Initial residual = 0, Final residual = 0, No Iterations 0

Execution time for mesh.update() = 0 s

DILUPBiCGStab:  Solving for Ux, Initial residual = 0.00524743, Final residual = 5.99903e-09, No Iterations 3
DILUPBiCGStab:  Solving for Uy, Initial residual = 0.00478399, Final residual = 5.15123e-09, No Iterations 3
DILUPBiCGStab:  Solving for O2, Initial residual = 0.00213316, Final residual = 1.66722e-09, No Iterations 3
DILUPBiCGStab:  Solving for H2O, Initial residual = 0.00213316, Final residual = 1.66722e-09, No Iterations 3
DILUPBiCGStab:  Solving for CH4, Initial residual = 0, Final residual = 0, No Iterations 0
DILUPBiCGStab:  Solving for CO2, Initial residual = 0.00213316, Final residual = 1.66722e-09, No Iterations 3
DILUPBiCGStab:  Solving for h, Initial residual = 0.00242532, Final residual = 1.67787e-09, No Iterations 3
min/max(T) = 300, 1044.97
GAMGPCG:  Solving for p_rgh, Initial residual = 0.0223443, Final residual = 1.87815e-07, No Iterations 5
diagonal:  Solving for rho, Initial residual = 0, Final residual = 0, No Iterations 0
time step continuity errors : sum local = 7.07365e-09, global = -1.74359e-10, cumulative = 1.17728e-06
GAMGPCG:  Solving for p_rgh, Initial residual = 0.00327028, Final residual = 5.85683e-07, No Iterations 4
diagonal:  Solving for rho, Initial residual = 0, Final residual = 0, No Iterations 0
time step continuity errors : sum local = 2.11719e-08, global = 1.94866e-09, cumulative = 1.17923e-06
DILUPBiCGStab:  Solving for omega, Initial residual = 8.49513e-05, Final residual = 1.39367e-09, No Iterations 2
DILUPBiCGStab:  Solving for k, Initial residual = 0.00396228, Final residual = 6.48436e-09, No Iterations 3

ExecutionTime = 295.86 s  ClockTime = 296 s

    Overall     = 0.00119999, 0.01
Time = 2493

diagonal:  Solving for rho, Initial residual = 0, Final residual = 0, No Iterations 0

Execution time for mesh.update() = 0 s

DILUPBiCGStab:  Solving for Ux, Initial residual = 0.00524029, Final residual = 4.70148e-09, No Iterations 3
DILUPBiCGStab:  Solving for Uy, Initial residual = 0.00477547, Final residual = 5.30803e-09, No Iterations 3
DILUPBiCGStab:  Solving for O2, Initial residual = 0.00215667, Final residual = 1.65113e-09, No Iterations 3
DILUPBiCGStab:  Solving for H2O, Initial residual = 0.00215667, Final residual = 1.65113e-09, No Iterations 3
DILUPBiCGStab:  Solving for CH4, Initial residual = 0, Final residual = 0, No Iterations 0
DILUPBiCGStab:  Solving for CO2, Initial residual = 0.00215667, Final residual = 1.65113e-09, No Iterations 3
DILUPBiCGStab:  Solving for h, Initial residual = 0.00245548, Final residual = 1.68911e-09, No Iterations 3
min/max(T) = 300, 1044.97
GAMGPCG:  Solving for p_rgh, Initial residual = 0.023944, Final residual = 1.87919e-07, No Iterations 5
diagonal:  Solving for rho, Initial residual = 0, Final residual = 0, No Iterations 0
time step continuity errors : sum local = 7.07639e-09, global = -3.53324e-10, cumulative = 1.17887e-06
GAMGPCG:  Solving for p_rgh, Initial residual = 0.00329348, Final residual = 5.92272e-07, No Iterations 4
diagonal:  Solving for rho, Initial residual = 0, Final residual = 0, No Iterations 0
time step continuity errors : sum local = 2.14072e-08, global = 1.09736e-09, cumulative = 1.17997e-06
DILUPBiCGStab:  Solving for omega, Initial residual = 8.48204e-05, Final residual = 1.3017e-09, No Iterations 2
DILUPBiCGStab:  Solving for k, Initial residual = 0.00396156, Final residual = 9.55458e-10, No Iterations 3

ExecutionTime = 295.98 s  ClockTime = 296 s

    Overall     = 0.00118833, 0.01
Time = 2494

diagonal:  Solving for rho, Initial residual = 0, Final residual = 0, No Iterations 0

Execution time for mesh.update() = 0 s

DILUPBiCGStab:  Solving for Ux, Initial residual = 0.00524302, Final residual = 4.34539e-09, No Iterations 3
DILUPBiCGStab:  Solving for Uy, Initial residual = 0.00495049, Final residual = 4.92044e-09, No Iterations 3
DILUPBiCGStab:  Solving for O2, Initial residual = 0.00218307, Final residual = 1.67929e-09, No Iterations 3
DILUPBiCGStab:  Solving for H2O, Initial residual = 0.00218307, Final residual = 1.67929e-09, No Iterations 3
DILUPBiCGStab:  Solving for CH4, Initial residual = 0, Final residual = 0, No Iterations 0
DILUPBiCGStab:  Solving for CO2, Initial residual = 0.00218307, Final residual = 1.67929e-09, No Iterations 3
DILUPBiCGStab:  Solving for h, Initial residual = 0.00249215, Final residual = 1.72992e-09, No Iterations 3
min/max(T) = 300, 1044.97
GAMGPCG:  Solving for p_rgh, Initial residual = 0.0248157, Final residual = 2.25289e-07, No Iterations 5
diagonal:  Solving for rho, Initial residual = 0, Final residual = 0, No Iterations 0
time step continuity errors : sum local = 8.45536e-09, global = -3.63848e-10, cumulative = 1.17961e-06
GAMGPCG:  Solving for p_rgh, Initial residual = 0.00344958, Final residual = 6.28199e-07, No Iterations 4
diagonal:  Solving for rho, Initial residual = 0, Final residual = 0, No Iterations 0
time step continuity errors : sum local = 2.24677e-08, global = 7.36117e-10, cumulative = 1.18034e-06
DILUPBiCGStab:  Solving for omega, Initial residual = 8.4092e-05, Final residual = 1.25853e-09, No Iterations 2
DILUPBiCGStab:  Solving for k, Initial residual = 0.00395219, Final residual = 2.68583e-09, No Iterations 3

ExecutionTime = 296.09 s  ClockTime = 296 s

    Overall     = 0.00118163, 0.01
Time = 2495

diagonal:  Solving for rho, Initial residual = 0, Final residual = 0, No Iterations 0

Execution time for mesh.update() = 0 s

DILUPBiCGStab:  Solving for Ux, Initial residual = 0.00526516, Final residual = 4.31406e-09, No Iterations 3
DILUPBiCGStab:  Solving for Uy, Initial residual = 0.00485335, Final residual = 5.48712e-09, No Iterations 3
DILUPBiCGStab:  Solving for O2, Initial residual = 0.00218775, Final residual = 1.67227e-09, No Iterations 3
DILUPBiCGStab:  Solving for H2O, Initial residual = 0.00218775, Final residual = 1.67227e-09, No Iterations 3
DILUPBiCGStab:  Solving for CH4, Initial residual = 0, Final residual = 0, No Iterations 0
DILUPBiCGStab:  Solving for CO2, Initial residual = 0.00218775, Final residual = 1.67227e-09, No Iterations 3
DILUPBiCGStab:  Solving for h, Initial residual = 0.00249794, Final residual = 1.73704e-09, No Iterations 3
min/max(T) = 300, 1044.97
GAMGPCG:  Solving for p_rgh, Initial residual = 0.0245336, Final residual = 1.9466e-07, No Iterations 5
diagonal:  Solving for rho, Initial residual = 0, Final residual = 0, No Iterations 0
time step continuity errors : sum local = 7.27429e-09, global = -7.80329e-10, cumulative = 1.17956e-06
GAMGPCG:  Solving for p_rgh, Initial residual = 0.00362481, Final residual = 5.91935e-07, No Iterations 4
diagonal:  Solving for rho, Initial residual = 0, Final residual = 0, No Iterations 0
time step continuity errors : sum local = 2.13645e-08, global = -1.6181e-10, cumulative = 1.1794e-06
DILUPBiCGStab:  Solving for omega, Initial residual = 8.34998e-05, Final residual = 1.21785e-09, No Iterations 2
DILUPBiCGStab:  Solving for k, Initial residual = 0.0039421, Final residual = 2.46554e-09, No Iterations 3

ExecutionTime = 296.21 s  ClockTime = 296 s

    Overall     = 0.00117046, 0.01
Time = 2496

diagonal:  Solving for rho, Initial residual = 0, Final residual = 0, No Iterations 0

Execution time for mesh.update() = 0 s

DILUPBiCGStab:  Solving for Ux, Initial residual = 0.00521119, Final residual = 4.34201e-09, No Iterations 3
DILUPBiCGStab:  Solving for Uy, Initial residual = 0.0048444, Final residual = 4.76558e-09, No Iterations 3
DILUPBiCGStab:  Solving for O2, Initial residual = 0.00220142, Final residual = 1.64945e-09, No Iterations 3
DILUPBiCGStab:  Solving for H2O, Initial residual = 0.00220142, Final residual = 1.64945e-09, No Iterations 3
DILUPBiCGStab:  Solving for CH4, Initial residual = 0, Final residual = 0, No Iterations 0
DILUPBiCGStab:  Solving for CO2, Initial residual = 0.00220142, Final residual = 1.64945e-09, No Iterations 3
DILUPBiCGStab:  Solving for h, Initial residual = 0.0025169, Final residual = 1.74913e-09, No Iterations 3
min/max(T) = 300, 1044.97
GAMGPCG:  Solving for p_rgh, Initial residual = 0.0245845, Final residual = 2.36091e-07, No Iterations 5
diagonal:  Solving for rho, Initial residual = 0, Final residual = 0, No Iterations 0
time step continuity errors : sum local = 8.81607e-09, global = -4.97102e-10, cumulative = 1.1789e-06
GAMGPCG:  Solving for p_rgh, Initial residual = 0.00357626, Final residual = 6.16154e-07, No Iterations 4
diagonal:  Solving for rho, Initial residual = 0, Final residual = 0, No Iterations 0
time step continuity errors : sum local = 2.20334e-08, global = -4.20891e-10, cumulative = 1.17848e-06
DILUPBiCGStab:  Solving for omega, Initial residual = 8.2484e-05, Final residual = 1.24851e-09, No Iterations 2
DILUPBiCGStab:  Solving for k, Initial residual = 0.00394004, Final residual = 2.49227e-09, No Iterations 3

ExecutionTime = 296.33 s  ClockTime = 296 s

    Overall     = 0.00116607, 0.01
Time = 2497

diagonal:  Solving for rho, Initial residual = 0, Final residual = 0, No Iterations 0

Execution time for mesh.update() = 0 s

DILUPBiCGStab:  Solving for Ux, Initial residual = 0.00519399, Final residual = 4.20955e-09, No Iterations 3
DILUPBiCGStab:  Solving for Uy, Initial residual = 0.00480668, Final residual = 5.08517e-09, No Iterations 3
DILUPBiCGStab:  Solving for O2, Initial residual = 0.00220016, Final residual = 1.63373e-09, No Iterations 3
DILUPBiCGStab:  Solving for H2O, Initial residual = 0.00220016, Final residual = 1.63373e-09, No Iterations 3
DILUPBiCGStab:  Solving for CH4, Initial residual = 0, Final residual = 0, No Iterations 0
DILUPBiCGStab:  Solving for CO2, Initial residual = 0.00220016, Final residual = 1.63373e-09, No Iterations 3
DILUPBiCGStab:  Solving for h, Initial residual = 0.00251437, Final residual = 1.73671e-09, No Iterations 3
min/max(T) = 300, 1044.97
GAMGPCG:  Solving for p_rgh, Initial residual = 0.0238305, Final residual = 2.05364e-07, No Iterations 5
diagonal:  Solving for rho, Initial residual = 0, Final residual = 0, No Iterations 0
time step continuity errors : sum local = 7.60976e-09, global = -7.30838e-10, cumulative = 1.17775e-06
GAMGPCG:  Solving for p_rgh, Initial residual = 0.00374152, Final residual = 5.73536e-07, No Iterations 4
diagonal:  Solving for rho, Initial residual = 0, Final residual = 0, No Iterations 0
time step continuity errors : sum local = 2.06811e-08, global = -4.72822e-10, cumulative = 1.17728e-06
DILUPBiCGStab:  Solving for omega, Initial residual = 8.17524e-05, Final residual = 1.33338e-09, No Iterations 2
DILUPBiCGStab:  Solving for k, Initial residual = 0.00393468, Final residual = 2.33805e-09, No Iterations 3

ExecutionTime = 296.45 s  ClockTime = 296 s

    Overall     = 0.00115784, 0.01
Time = 2498

diagonal:  Solving for rho, Initial residual = 0, Final residual = 0, No Iterations 0

Execution time for mesh.update() = 0 s

DILUPBiCGStab:  Solving for Ux, Initial residual = 0.00515923, Final residual = 4.49943e-09, No Iterations 3
DILUPBiCGStab:  Solving for Uy, Initial residual = 0.00476592, Final residual = 4.53814e-09, No Iterations 3
DILUPBiCGStab:  Solving for O2, Initial residual = 0.00220163, Final residual = 1.67684e-09, No Iterations 3
DILUPBiCGStab:  Solving for H2O, Initial residual = 0.00220163, Final residual = 1.67684e-09, No Iterations 3
DILUPBiCGStab:  Solving for CH4, Initial residual = 0, Final residual = 0, No Iterations 0
DILUPBiCGStab:  Solving for CO2, Initial residual = 0.00220163, Final residual = 1.67684e-09, No Iterations 3
DILUPBiCGStab:  Solving for h, Initial residual = 0.00251987, Final residual = 1.80822e-09, No Iterations 3
min/max(T) = 300, 1044.97
GAMGPCG:  Solving for p_rgh, Initial residual = 0.0242162, Final residual = 2.16257e-07, No Iterations 5
diagonal:  Solving for rho, Initial residual = 0, Final residual = 0, No Iterations 0
time step continuity errors : sum local = 7.91019e-09, global = -6.43619e-10, cumulative = 1.17664e-06
GAMGPCG:  Solving for p_rgh, Initial residual = 0.00366178, Final residual = 5.91136e-07, No Iterations 4
diagonal:  Solving for rho, Initial residual = 0, Final residual = 0, No Iterations 0
time step continuity errors : sum local = 2.115e-08, global = 7.7695e-11, cumulative = 1.17671e-06
DILUPBiCGStab:  Solving for omega, Initial residual = 8.06355e-05, Final residual = 1.31357e-09, No Iterations 2
DILUPBiCGStab:  Solving for k, Initial residual = 0.00391914, Final residual = 2.45022e-09, No Iterations 3

ExecutionTime = 296.56 s  ClockTime = 296 s

    Overall     = 0.00115683, 0.01
Time = 2499

diagonal:  Solving for rho, Initial residual = 0, Final residual = 0, No Iterations 0

Execution time for mesh.update() = 0 s

DILUPBiCGStab:  Solving for Ux, Initial residual = 0.00507648, Final residual = 4.91828e-09, No Iterations 3
DILUPBiCGStab:  Solving for Uy, Initial residual = 0.00473675, Final residual = 4.45766e-09, No Iterations 3
DILUPBiCGStab:  Solving for O2, Initial residual = 0.00218026, Final residual = 2.03957e-09, No Iterations 3
DILUPBiCGStab:  Solving for H2O, Initial residual = 0.00218026, Final residual = 2.03957e-09, No Iterations 3
DILUPBiCGStab:  Solving for CH4, Initial residual = 0, Final residual = 0, No Iterations 0
DILUPBiCGStab:  Solving for CO2, Initial residual = 0.00218026, Final residual = 2.03957e-09, No Iterations 3
DILUPBiCGStab:  Solving for h, Initial residual = 0.00249094, Final residual = 2.19726e-09, No Iterations 3
min/max(T) = 300, 1044.97
GAMGPCG:  Solving for p_rgh, Initial residual = 0.0227939, Final residual = 2.0815e-07, No Iterations 5
diagonal:  Solving for rho, Initial residual = 0, Final residual = 0, No Iterations 0
time step continuity errors : sum local = 7.53821e-09, global = -7.90801e-10, cumulative = 1.17592e-06
GAMGPCG:  Solving for p_rgh, Initial residual = 0.00364027, Final residual = 5.85017e-07, No Iterations 4
diagonal:  Solving for rho, Initial residual = 0, Final residual = 0, No Iterations 0
time step continuity errors : sum local = 2.08714e-08, global = 1.58413e-10, cumulative = 1.17608e-06
DILUPBiCGStab:  Solving for omega, Initial residual = 7.83795e-05, Final residual = 1.32818e-09, No Iterations 2
DILUPBiCGStab:  Solving for k, Initial residual = 0.00389842, Final residual = 3.45777e-09, No Iterations 3

ExecutionTime = 296.68 s  ClockTime = 297 s

    Overall     = 0.00115148, 0.01
Time = 2500

diagonal:  Solving for rho, Initial residual = 0, Final residual = 0, No Iterations 0

Execution time for mesh.update() = 0 s

DILUPBiCGStab:  Solving for Ux, Initial residual = 0.00501103, Final residual = 5.49202e-09, No Iterations 3
DILUPBiCGStab:  Solving for Uy, Initial residual = 0.00467527, Final residual = 4.03064e-09, No Iterations 3
GAMGPCG:  Solving for G, Initial residual = 0.26991, Final residual = 6.24837e-05, No Iterations 6
DILUPBiCGStab:  Solving for O2, Initial residual = 0.00216909, Final residual = 2.06791e-09, No Iterations 3
DILUPBiCGStab:  Solving for H2O, Initial residual = 0.00216909, Final residual = 2.06791e-09, No Iterations 3
DILUPBiCGStab:  Solving for CH4, Initial residual = 0, Final residual = 0, No Iterations 0
DILUPBiCGStab:  Solving for CO2, Initial residual = 0.00216909, Final residual = 2.06791e-09, No Iterations 3
DILUPBiCGStab:  Solving for h, Initial residual = 0.00247856, Final residual = 2.20168e-09, No Iterations 3
min/max(T) = 300, 1044.97
GAMGPCG:  Solving for p_rgh, Initial residual = 0.0232258, Final residual = 2.15849e-07, No Iterations 5
diagonal:  Solving for rho, Initial residual = 0, Final residual = 0, No Iterations 0
time step continuity errors : sum local = 7.75269e-09, global = -4.79929e-10, cumulative = 1.1756e-06
GAMGPCG:  Solving for p_rgh, Initial residual = 0.00341953, Final residual = 5.62503e-07, No Iterations 4
diagonal:  Solving for rho, Initial residual = 0, Final residual = 0, No Iterations 0
time step continuity errors : sum local = 1.99856e-08, global = 3.18513e-10, cumulative = 1.17592e-06
DILUPBiCGStab:  Solving for omega, Initial residual = 7.66596e-05, Final residual = 1.36338e-09, No Iterations 2
DILUPBiCGStab:  Solving for k, Initial residual = 0.0038816, Final residual = 3.49398e-09, No Iterations 3

ExecutionTime = 296.93 s  ClockTime = 297 s


Patch Mean : 302.464
Patch Variance : 0.0242102
Patch Gradient : 0.172373
End
