/*---------------------------------------------------------------------------*\
  =========                 |
  \\      /  F ield         | OpenFOAM: The Open Source CFD Toolbox
   \\    /   O peration     | Website:  https://openfoam.org
    \\  /    A nd           | Version:  dev
     \\/     M anipulation  |
\*---------------------------------------------------------------------------*/
Build  : dev-cabe48fb62c1
Exec   : fireDyMFoam
Date   : Apr 15 2019
Time   : 12:03:39
Host   : "Host"
PID    : 31198
I/O    : uncollated
Case   : /home/tesla/OpenFOAM/tesla-dev/run/rollerOpt_COBYLA_NEW
nProcs : 1
sigFpe : Enabling floating point exception trapping (FOAM_SIGFPE).
fileModificationChecking : Monitoring run-time modified files using timeStampMaster (fileModificationSkew 10)
allowSystemOperations : Allowing user-supplied system call operations

// * * * * * * * * * * * * * * * * * * * * * * * * * * * * * * * * * * * * * //
Create time

--> FOAM Warning : 
    From function void* Foam::dlOpen(const Foam::fileName&, bool)
    in file POSIX.C at line 1268
    dlopen error : libgroovyBC.so: cannot open shared object file: No such file or directory
--> FOAM Warning : 
    From function bool Foam::dlLibraryTable::open(const Foam::fileName&, bool)
    in file db/dynamicLibrary/dlLibraryTable/dlLibraryTable.C at line 105
    could not load "libgroovyBC.so"
Create mesh for time = 250

Selecting dynamicFvMesh dynamicRefineFvMesh
Detected 548 cells that are protected from refinement. Writing these to cellSet protectedCells.

PIMPLE: No convergence criteria found


PIMPLE: Operating solver in PISO mode


Initializing Solver

Selecting thermodynamics package 
{
    type            hePsiThermo;
    mixture         reactingMixture;
    transport       sutherland;
    thermo          janaf;
    energy          sensibleEnthalpy;
    equationOfState perfectGas;
    specie          specie;
}

Selecting chemistryReader foamChemistryReader
    elements not defined in "/home/tesla/OpenFOAM/tesla-dev/run/rollerOpt_COBYLA_NEW/constant/reactions"
Reading/calculating face flux field phi

No MRF models present

Selecting turbulence model type RAS
Selecting RAS turbulence model kOmegaSST
Selecting patchDistMethod meshWave
kOmegaSSTCoeffs
{
    delta           cubeRootVol;
    cubeRootVolCoeffs
    {
        deltaCoeff      1;
    }
    alphaK1         0.85;
    alphaK2         1;
    alphaOmega1     0.5;
    alphaOmega2     0.856;
    gamma1          0.555556;
    gamma2          0.44;
    beta1           0.075;
    beta2           0.0828;
    betaStar        0.09;
    a1              0.31;
    b1              1;
    c1              10;
    F3              false;
}

Selecting combustion model none<psiThermoCombustion>
--> FOAM Warning : 
    From function static Foam::autoPtr<T> Foam::combustionModel::New(typename CombustionModel::reactionThermo&, const Foam::compressibleTurbulenceModel&, const Foam::word&) [with CombustionModel = Foam::CombustionModel<Foam::psiReactionThermo>; typename CombustionModel::reactionThermo = Foam::psiReactionThermo]
    in file /home/tesla/OpenFOAM/OpenFOAM-dev/src/combustionModels/lnInclude/combustionModelTemplates.C at line 69
    Template parameters are no longer required when selecting a combustionModel. This information is now obtained directly from the thermodynamics. Actually selecting combustion model none.

Reading g

Reading hRef
Calculating field g.h


Reading pRef
Selecting radiationModel P1
Selecting absorptionEmissionModel greyMeanAbsorptionEmission
Selecting scatterModel none
Selecting sootModel none
Creating finite volume options from "system/fvOptions"

No finite volume options present
Using LTS

Starting time loop

Using dynamicCode for functionObject patchCalcs at line 64 in "/home/tesla/OpenFOAM/tesla-dev/run/rollerOpt_COBYLA_NEW/system/controlDict.functions.patchCalcs"
    Overall     = 0.00188139, 0.01
Time = 251

diagonal:  Solving for rho, Initial residual = 0, Final residual = 0, No Iterations 0

Execution time for mesh.update() = 0 s

DILUPBiCGStab:  Solving for Ux, Initial residual = 0.00793707, Final residual = 1.90023e-09, No Iterations 3
DILUPBiCGStab:  Solving for Uy, Initial residual = 0.00797533, Final residual = 1.57003e-09, No Iterations 3
GAMGPCG:  Solving for G, Initial residual = 0.0283179, Final residual = 5.02694e-05, No Iterations 3
DILUPBiCGStab:  Solving for O2, Initial residual = 0.00458413, Final residual = 8.54965e-09, No Iterations 3
DILUPBiCGStab:  Solving for H2O, Initial residual = 0.00458413, Final residual = 8.54923e-09, No Iterations 3
DILUPBiCGStab:  Solving for CH4, Initial residual = 0, Final residual = 0, No Iterations 0
DILUPBiCGStab:  Solving for CO2, Initial residual = 0.00458414, Final residual = 8.54928e-09, No Iterations 3
DILUPBiCGStab:  Solving for h, Initial residual = 0.00534585, Final residual = 8.28015e-09, No Iterations 3
min/max(T) = 300, 1044.99
GAMGPCG:  Solving for p_rgh, Initial residual = 0.0205099, Final residual = 2.20819e-07, No Iterations 5
diagonal:  Solving for rho, Initial residual = 0, Final residual = 0, No Iterations 0
time step continuity errors : sum local = 2.46084e-06, global = -9.8296e-08, cumulative = -9.8296e-08
GAMGPCG:  Solving for p_rgh, Initial residual = 0.00336263, Final residual = 3.15288e-07, No Iterations 4
diagonal:  Solving for rho, Initial residual = 0, Final residual = 0, No Iterations 0
time step continuity errors : sum local = 2.46266e-06, global = -9.86182e-08, cumulative = -1.96914e-07
DILUPBiCGStab:  Solving for omega, Initial residual = 0.000167564, Final residual = 2.50887e-09, No Iterations 2
DILUPBiCGStab:  Solving for k, Initial residual = 0.00845714, Final residual = 7.77346e-09, No Iterations 3

ExecutionTime = 0.38 s  ClockTime = 1 s

    Overall     = 0.00188215, 0.01
Time = 252

diagonal:  Solving for rho, Initial residual = 0, Final residual = 0, No Iterations 0

Execution time for mesh.update() = 0 s

DILUPBiCGStab:  Solving for Ux, Initial residual = 0.0079115, Final residual = 1.71942e-09, No Iterations 3
DILUPBiCGStab:  Solving for Uy, Initial residual = 0.00798174, Final residual = 1.61954e-09, No Iterations 3
DILUPBiCGStab:  Solving for O2, Initial residual = 0.00458965, Final residual = 9.96445e-09, No Iterations 3
DILUPBiCGStab:  Solving for H2O, Initial residual = 0.00458964, Final residual = 9.96317e-09, No Iterations 3
DILUPBiCGStab:  Solving for CH4, Initial residual = 0, Final residual = 0, No Iterations 0
DILUPBiCGStab:  Solving for CO2, Initial residual = 0.00458964, Final residual = 9.96316e-09, No Iterations 3
DILUPBiCGStab:  Solving for h, Initial residual = 0.00535042, Final residual = 8.77327e-09, No Iterations 3
min/max(T) = 300, 1044.99
GAMGPCG:  Solving for p_rgh, Initial residual = 0.0199596, Final residual = 2.17762e-07, No Iterations 5
diagonal:  Solving for rho, Initial residual = 0, Final residual = 0, No Iterations 0
time step continuity errors : sum local = 1.74412e-08, global = 1.50307e-09, cumulative = -1.95411e-07
GAMGPCG:  Solving for p_rgh, Initial residual = 0.00321708, Final residual = 3.55098e-07, No Iterations 4
diagonal:  Solving for rho, Initial residual = 0, Final residual = 0, No Iterations 0
time step continuity errors : sum local = 2.73912e-08, global = 1.33519e-09, cumulative = -1.94076e-07
DILUPBiCGStab:  Solving for omega, Initial residual = 0.000168611, Final residual = 2.53569e-09, No Iterations 2
DILUPBiCGStab:  Solving for k, Initial residual = 0.00847924, Final residual = 2.76659e-09, No Iterations 3

ExecutionTime = 0.5 s  ClockTime = 1 s

    Overall     = 0.00188258, 0.01
Time = 253

diagonal:  Solving for rho, Initial residual = 0, Final residual = 0, No Iterations 0

Execution time for mesh.update() = 0 s

DILUPBiCGStab:  Solving for Ux, Initial residual = 0.00789962, Final residual = 1.86566e-09, No Iterations 3
DILUPBiCGStab:  Solving for Uy, Initial residual = 0.00796186, Final residual = 1.5485e-09, No Iterations 3
DILUPBiCGStab:  Solving for O2, Initial residual = 0.00459664, Final residual = 8.57134e-09, No Iterations 3
DILUPBiCGStab:  Solving for H2O, Initial residual = 0.00459665, Final residual = 8.57088e-09, No Iterations 3
DILUPBiCGStab:  Solving for CH4, Initial residual = 0, Final residual = 0, No Iterations 0
DILUPBiCGStab:  Solving for CO2, Initial residual = 0.00459665, Final residual = 8.57087e-09, No Iterations 3
DILUPBiCGStab:  Solving for h, Initial residual = 0.00536496, Final residual = 7.76972e-09, No Iterations 3
min/max(T) = 300, 1044.99
GAMGPCG:  Solving for p_rgh, Initial residual = 0.0206272, Final residual = 2.2205e-07, No Iterations 5
diagonal:  Solving for rho, Initial residual = 0, Final residual = 0, No Iterations 0
time step continuity errors : sum local = 1.76911e-08, global = 1.33217e-09, cumulative = -1.92744e-07
GAMGPCG:  Solving for p_rgh, Initial residual = 0.00317494, Final residual = 4.04316e-07, No Iterations 4
diagonal:  Solving for rho, Initial residual = 0, Final residual = 0, No Iterations 0
time step continuity errors : sum local = 3.10609e-08, global = 1.05338e-09, cumulative = -1.9169e-07
DILUPBiCGStab:  Solving for omega, Initial residual = 0.000169121, Final residual = 2.63682e-09, No Iterations 2
DILUPBiCGStab:  Solving for k, Initial residual = 0.0084919, Final residual = 5.33029e-09, No Iterations 3

ExecutionTime = 0.62 s  ClockTime = 1 s

    Overall     = 0.00188355, 0.01
Time = 254

diagonal:  Solving for rho, Initial residual = 0, Final residual = 0, No Iterations 0

Execution time for mesh.update() = 0 s

DILUPBiCGStab:  Solving for Ux, Initial residual = 0.00788806, Final residual = 1.86187e-09, No Iterations 3
DILUPBiCGStab:  Solving for Uy, Initial residual = 0.00798319, Final residual = 1.41572e-09, No Iterations 3
DILUPBiCGStab:  Solving for O2, Initial residual = 0.00460832, Final residual = 5.94442e-09, No Iterations 3
DILUPBiCGStab:  Solving for H2O, Initial residual = 0.00460833, Final residual = 5.94484e-09, No Iterations 3
DILUPBiCGStab:  Solving for CH4, Initial residual = 0, Final residual = 0, No Iterations 0
DILUPBiCGStab:  Solving for CO2, Initial residual = 0.00460833, Final residual = 5.94483e-09, No Iterations 3
DILUPBiCGStab:  Solving for h, Initial residual = 0.00537723, Final residual = 6.38847e-09, No Iterations 3
min/max(T) = 300, 1044.99
GAMGPCG:  Solving for p_rgh, Initial residual = 0.0215146, Final residual = 2.07153e-07, No Iterations 5
diagonal:  Solving for rho, Initial residual = 0, Final residual = 0, No Iterations 0
time step continuity errors : sum local = 1.66975e-08, global = 5.90626e-10, cumulative = -1.911e-07
GAMGPCG:  Solving for p_rgh, Initial residual = 0.00327894, Final residual = 3.96127e-07, No Iterations 4
diagonal:  Solving for rho, Initial residual = 0, Final residual = 0, No Iterations 0
time step continuity errors : sum local = 3.04002e-08, global = 1.3136e-09, cumulative = -1.89786e-07
DILUPBiCGStab:  Solving for omega, Initial residual = 0.000168916, Final residual = 2.38594e-09, No Iterations 2
DILUPBiCGStab:  Solving for k, Initial residual = 0.00852721, Final residual = 6.0882e-11, No Iterations 4

ExecutionTime = 0.74 s  ClockTime = 1 s

    Overall     = 0.00188501, 0.01
Time = 255

diagonal:  Solving for rho, Initial residual = 0, Final residual = 0, No Iterations 0

Execution time for mesh.update() = 0 s

DILUPBiCGStab:  Solving for Ux, Initial residual = 0.00787594, Final residual = 1.64385e-09, No Iterations 3
DILUPBiCGStab:  Solving for Uy, Initial residual = 0.00800083, Final residual = 1.52699e-09, No Iterations 3
DILUPBiCGStab:  Solving for O2, Initial residual = 0.00460248, Final residual = 6.25604e-09, No Iterations 3
DILUPBiCGStab:  Solving for H2O, Initial residual = 0.0046025, Final residual = 6.25666e-09, No Iterations 3
DILUPBiCGStab:  Solving for CH4, Initial residual = 0, Final residual = 0, No Iterations 0
DILUPBiCGStab:  Solving for CO2, Initial residual = 0.0046025, Final residual = 6.25662e-09, No Iterations 3
DILUPBiCGStab:  Solving for h, Initial residual = 0.00537048, Final residual = 6.42317e-09, No Iterations 3
min/max(T) = 300, 1044.99
GAMGPCG:  Solving for p_rgh, Initial residual = 0.0211228, Final residual = 2.34271e-07, No Iterations 5
diagonal:  Solving for rho, Initial residual = 0, Final residual = 0, No Iterations 0
time step continuity errors : sum local = 1.87668e-08, global = 4.8821e-10, cumulative = -1.89298e-07
GAMGPCG:  Solving for p_rgh, Initial residual = 0.00337876, Final residual = 3.95014e-07, No Iterations 4
diagonal:  Solving for rho, Initial residual = 0, Final residual = 0, No Iterations 0
time step continuity errors : sum local = 3.02625e-08, global = 1.11112e-09, cumulative = -1.88187e-07
DILUPBiCGStab:  Solving for omega, Initial residual = 0.000168488, Final residual = 2.38647e-09, No Iterations 2
DILUPBiCGStab:  Solving for k, Initial residual = 0.00856765, Final residual = 7.01471e-09, No Iterations 3

ExecutionTime = 0.86 s  ClockTime = 1 s

    Overall     = 0.00188668, 0.01
Time = 256

diagonal:  Solving for rho, Initial residual = 0, Final residual = 0, No Iterations 0

Execution time for mesh.update() = 0 s

DILUPBiCGStab:  Solving for Ux, Initial residual = 0.00784773, Final residual = 1.49987e-09, No Iterations 3
DILUPBiCGStab:  Solving for Uy, Initial residual = 0.0079635, Final residual = 1.62111e-09, No Iterations 3
DILUPBiCGStab:  Solving for O2, Initial residual = 0.0046029, Final residual = 5.30569e-09, No Iterations 3
DILUPBiCGStab:  Solving for H2O, Initial residual = 0.00460291, Final residual = 5.30594e-09, No Iterations 3
DILUPBiCGStab:  Solving for CH4, Initial residual = 0, Final residual = 0, No Iterations 0
DILUPBiCGStab:  Solving for CO2, Initial residual = 0.00460291, Final residual = 5.30592e-09, No Iterations 3
DILUPBiCGStab:  Solving for h, Initial residual = 0.00537266, Final residual = 5.67659e-09, No Iterations 3
min/max(T) = 300, 1044.99
GAMGPCG:  Solving for p_rgh, Initial residual = 0.0206395, Final residual = 2.2785e-07, No Iterations 5
diagonal:  Solving for rho, Initial residual = 0, Final residual = 0, No Iterations 0
time step continuity errors : sum local = 1.84197e-08, global = -2.01411e-10, cumulative = -1.88388e-07
GAMGPCG:  Solving for p_rgh, Initial residual = 0.00334042, Final residual = 4.22832e-07, No Iterations 4
diagonal:  Solving for rho, Initial residual = 0, Final residual = 0, No Iterations 0
time step continuity errors : sum local = 3.21511e-08, global = 1.99036e-09, cumulative = -1.86398e-07
DILUPBiCGStab:  Solving for omega, Initial residual = 0.000169231, Final residual = 2.12049e-09, No Iterations 2
DILUPBiCGStab:  Solving for k, Initial residual = 0.00862054, Final residual = 7.05424e-11, No Iterations 4

ExecutionTime = 0.98 s  ClockTime = 1 s

    Overall     = 0.00188901, 0.01
Time = 257

diagonal:  Solving for rho, Initial residual = 0, Final residual = 0, No Iterations 0

Execution time for mesh.update() = 0 s

DILUPBiCGStab:  Solving for Ux, Initial residual = 0.00781729, Final residual = 1.33425e-09, No Iterations 3
DILUPBiCGStab:  Solving for Uy, Initial residual = 0.0079184, Final residual = 1.56091e-09, No Iterations 3
DILUPBiCGStab:  Solving for O2, Initial residual = 0.00460894, Final residual = 5.3882e-09, No Iterations 3
DILUPBiCGStab:  Solving for H2O, Initial residual = 0.00460896, Final residual = 5.38834e-09, No Iterations 3
DILUPBiCGStab:  Solving for CH4, Initial residual = 0, Final residual = 0, No Iterations 0
DILUPBiCGStab:  Solving for CO2, Initial residual = 0.00460896, Final residual = 5.38832e-09, No Iterations 3
DILUPBiCGStab:  Solving for h, Initial residual = 0.0053718, Final residual = 5.69427e-09, No Iterations 3
min/max(T) = 300, 1044.99
GAMGPCG:  Solving for p_rgh, Initial residual = 0.0206528, Final residual = 2.2556e-07, No Iterations 5
diagonal:  Solving for rho, Initial residual = 0, Final residual = 0, No Iterations 0
time step continuity errors : sum local = 1.81858e-08, global = -7.32551e-10, cumulative = -1.8713e-07
GAMGPCG:  Solving for p_rgh, Initial residual = 0.00336482, Final residual = 4.44274e-07, No Iterations 4
diagonal:  Solving for rho, Initial residual = 0, Final residual = 0, No Iterations 0
time step continuity errors : sum local = 3.36553e-08, global = 1.89918e-09, cumulative = -1.85231e-07
DILUPBiCGStab:  Solving for omega, Initial residual = 0.00016699, Final residual = 2.14309e-09, No Iterations 2
DILUPBiCGStab:  Solving for k, Initial residual = 0.00866493, Final residual = 2.15361e-09, No Iterations 3

ExecutionTime = 1.1 s  ClockTime = 2 s

    Overall     = 0.00189164, 0.01
Time = 258

diagonal:  Solving for rho, Initial residual = 0, Final residual = 0, No Iterations 0

Execution time for mesh.update() = 0 s

DILUPBiCGStab:  Solving for Ux, Initial residual = 0.00780993, Final residual = 1.28808e-09, No Iterations 3
DILUPBiCGStab:  Solving for Uy, Initial residual = 0.00791621, Final residual = 1.4678e-09, No Iterations 3
DILUPBiCGStab:  Solving for O2, Initial residual = 0.00461259, Final residual = 5.18854e-09, No Iterations 3
DILUPBiCGStab:  Solving for H2O, Initial residual = 0.0046126, Final residual = 5.18863e-09, No Iterations 3
DILUPBiCGStab:  Solving for CH4, Initial residual = 0, Final residual = 0, No Iterations 0
DILUPBiCGStab:  Solving for CO2, Initial residual = 0.0046126, Final residual = 5.18863e-09, No Iterations 3
DILUPBiCGStab:  Solving for h, Initial residual = 0.00537663, Final residual = 5.55378e-09, No Iterations 3
min/max(T) = 300, 1044.99
GAMGPCG:  Solving for p_rgh, Initial residual = 0.0209587, Final residual = 2.18901e-07, No Iterations 5
diagonal:  Solving for rho, Initial residual = 0, Final residual = 0, No Iterations 0
time step continuity errors : sum local = 1.76883e-08, global = -1.15921e-09, cumulative = -1.8639e-07
GAMGPCG:  Solving for p_rgh, Initial residual = 0.00340825, Final residual = 4.10682e-07, No Iterations 4
diagonal:  Solving for rho, Initial residual = 0, Final residual = 0, No Iterations 0
time step continuity errors : sum local = 3.1493e-08, global = 2.31122e-09, cumulative = -1.84079e-07
DILUPBiCGStab:  Solving for omega, Initial residual = 0.000168263, Final residual = 2.00699e-09, No Iterations 2
DILUPBiCGStab:  Solving for k, Initial residual = 0.00869686, Final residual = 2.40143e-09, No Iterations 3

ExecutionTime = 1.22 s  ClockTime = 2 s

    Overall     = 0.00189506, 0.01
Time = 259

diagonal:  Solving for rho, Initial residual = 0, Final residual = 0, No Iterations 0

Execution time for mesh.update() = 0 s

DILUPBiCGStab:  Solving for Ux, Initial residual = 0.00779605, Final residual = 1.12063e-09, No Iterations 3
DILUPBiCGStab:  Solving for Uy, Initial residual = 0.00787654, Final residual = 1.43503e-09, No Iterations 3
DILUPBiCGStab:  Solving for O2, Initial residual = 0.00461399, Final residual = 5.02694e-09, No Iterations 3
DILUPBiCGStab:  Solving for H2O, Initial residual = 0.004614, Final residual = 5.02702e-09, No Iterations 3
DILUPBiCGStab:  Solving for CH4, Initial residual = 0, Final residual = 0, No Iterations 0
DILUPBiCGStab:  Solving for CO2, Initial residual = 0.004614, Final residual = 5.02703e-09, No Iterations 3
DILUPBiCGStab:  Solving for h, Initial residual = 0.00538104, Final residual = 5.35583e-09, No Iterations 3
min/max(T) = 300, 1044.99
GAMGPCG:  Solving for p_rgh, Initial residual = 0.0201971, Final residual = 2.34478e-07, No Iterations 5
diagonal:  Solving for rho, Initial residual = 0, Final residual = 0, No Iterations 0
time step continuity errors : sum local = 1.88381e-08, global = -1.424e-09, cumulative = -1.85503e-07
GAMGPCG:  Solving for p_rgh, Initial residual = 0.00325886, Final residual = 4.22724e-07, No Iterations 4
diagonal:  Solving for rho, Initial residual = 0, Final residual = 0, No Iterations 0
time step continuity errors : sum local = 3.24301e-08, global = 1.94125e-09, cumulative = -1.83562e-07
DILUPBiCGStab:  Solving for omega, Initial residual = 0.000168328, Final residual = 1.86778e-09, No Iterations 2
DILUPBiCGStab:  Solving for k, Initial residual = 0.00874008, Final residual = 7.81832e-09, No Iterations 3

ExecutionTime = 1.34 s  ClockTime = 2 s

    Overall     = 0.00189817, 0.01
Time = 260

diagonal:  Solving for rho, Initial residual = 0, Final residual = 0, No Iterations 0

Execution time for mesh.update() = 0 s

DILUPBiCGStab:  Solving for Ux, Initial residual = 0.00778204, Final residual = 1.20771e-09, No Iterations 3
DILUPBiCGStab:  Solving for Uy, Initial residual = 0.00785596, Final residual = 9.75603e-09, No Iterations 3
GAMGPCG:  Solving for G, Initial residual = 0.132394, Final residual = 5.8359e-05, No Iterations 6
DILUPBiCGStab:  Solving for O2, Initial residual = 0.00461853, Final residual = 5.20893e-09, No Iterations 3
DILUPBiCGStab:  Solving for H2O, Initial residual = 0.00461854, Final residual = 5.20897e-09, No Iterations 3
DILUPBiCGStab:  Solving for CH4, Initial residual = 0, Final residual = 0, No Iterations 0
DILUPBiCGStab:  Solving for CO2, Initial residual = 0.00461854, Final residual = 5.20898e-09, No Iterations 3
DILUPBiCGStab:  Solving for h, Initial residual = 0.00538796, Final residual = 5.23392e-09, No Iterations 3
min/max(T) = 300, 1044.99
GAMGPCG:  Solving for p_rgh, Initial residual = 0.0214299, Final residual = 2.14578e-07, No Iterations 5
diagonal:  Solving for rho, Initial residual = 0, Final residual = 0, No Iterations 0
time step continuity errors : sum local = 1.7695e-08, global = -1.63276e-09, cumulative = -1.85195e-07
GAMGPCG:  Solving for p_rgh, Initial residual = 0.00326541, Final residual = 3.83445e-07, No Iterations 4
diagonal:  Solving for rho, Initial residual = 0, Final residual = 0, No Iterations 0
time step continuity errors : sum local = 2.93389e-08, global = 2.11584e-09, cumulative = -1.83079e-07
DILUPBiCGStab:  Solving for omega, Initial residual = 0.000166169, Final residual = 1.77852e-09, No Iterations 2
DILUPBiCGStab:  Solving for k, Initial residual = 0.00879333, Final residual = 6.51351e-09, No Iterations 3

ExecutionTime = 1.6 s  ClockTime = 2 s

    Overall     = 0.00190234, 0.01
Time = 261

diagonal:  Solving for rho, Initial residual = 0, Final residual = 0, No Iterations 0

Execution time for mesh.update() = 0 s

DILUPBiCGStab:  Solving for Ux, Initial residual = 0.00779995, Final residual = 1.17477e-09, No Iterations 3
DILUPBiCGStab:  Solving for Uy, Initial residual = 0.00784403, Final residual = 9.39909e-09, No Iterations 3
DILUPBiCGStab:  Solving for O2, Initial residual = 0.00462198, Final residual = 5.46017e-09, No Iterations 3
DILUPBiCGStab:  Solving for H2O, Initial residual = 0.004622, Final residual = 5.46023e-09, No Iterations 3
DILUPBiCGStab:  Solving for CH4, Initial residual = 0, Final residual = 0, No Iterations 0
DILUPBiCGStab:  Solving for CO2, Initial residual = 0.004622, Final residual = 5.46023e-09, No Iterations 3
DILUPBiCGStab:  Solving for h, Initial residual = 0.00539262, Final residual = 5.81325e-09, No Iterations 3
min/max(T) = 300, 1044.99
GAMGPCG:  Solving for p_rgh, Initial residual = 0.0212354, Final residual = 2.32286e-07, No Iterations 5
diagonal:  Solving for rho, Initial residual = 0, Final residual = 0, No Iterations 0
time step continuity errors : sum local = 1.92606e-08, global = -1.282e-09, cumulative = -1.84361e-07
GAMGPCG:  Solving for p_rgh, Initial residual = 0.00345347, Final residual = 4.22171e-07, No Iterations 4
diagonal:  Solving for rho, Initial residual = 0, Final residual = 0, No Iterations 0
time step continuity errors : sum local = 3.20631e-08, global = 2.06814e-09, cumulative = -1.82293e-07
DILUPBiCGStab:  Solving for omega, Initial residual = 0.000166333, Final residual = 1.65101e-09, No Iterations 2
DILUPBiCGStab:  Solving for k, Initial residual = 0.00885598, Final residual = 5.5629e-09, No Iterations 3

ExecutionTime = 1.72 s  ClockTime = 2 s

    Overall     = 0.00190523, 0.01
Time = 262

diagonal:  Solving for rho, Initial residual = 0, Final residual = 0, No Iterations 0

Execution time for mesh.update() = 0 s

DILUPBiCGStab:  Solving for Ux, Initial residual = 0.0077974, Final residual = 1.06505e-09, No Iterations 3
DILUPBiCGStab:  Solving for Uy, Initial residual = 0.00781389, Final residual = 9.58411e-09, No Iterations 3
DILUPBiCGStab:  Solving for O2, Initial residual = 0.00461864, Final residual = 5.28435e-09, No Iterations 3
DILUPBiCGStab:  Solving for H2O, Initial residual = 0.00461865, Final residual = 5.2844e-09, No Iterations 3
DILUPBiCGStab:  Solving for CH4, Initial residual = 0, Final residual = 0, No Iterations 0
DILUPBiCGStab:  Solving for CO2, Initial residual = 0.00461865, Final residual = 5.28441e-09, No Iterations 3
DILUPBiCGStab:  Solving for h, Initial residual = 0.00538433, Final residual = 5.69093e-09, No Iterations 3
min/max(T) = 300, 1044.99
GAMGPCG:  Solving for p_rgh, Initial residual = 0.0208124, Final residual = 2.307e-07, No Iterations 5
diagonal:  Solving for rho, Initial residual = 0, Final residual = 0, No Iterations 0
time step continuity errors : sum local = 1.90902e-08, global = -1.36785e-09, cumulative = -1.83661e-07
GAMGPCG:  Solving for p_rgh, Initial residual = 0.00342185, Final residual = 4.26413e-07, No Iterations 4
diagonal:  Solving for rho, Initial residual = 0, Final residual = 0, No Iterations 0
time step continuity errors : sum local = 3.24603e-08, global = 2.51081e-09, cumulative = -1.8115e-07
DILUPBiCGStab:  Solving for omega, Initial residual = 0.000166957, Final residual = 1.58647e-09, No Iterations 2
DILUPBiCGStab:  Solving for k, Initial residual = 0.00889531, Final residual = 5.99052e-09, No Iterations 3

ExecutionTime = 1.84 s  ClockTime = 2 s

    Overall     = 0.00190901, 0.01
Time = 263

diagonal:  Solving for rho, Initial residual = 0, Final residual = 0, No Iterations 0

Execution time for mesh.update() = 0 s

DILUPBiCGStab:  Solving for Ux, Initial residual = 0.00778584, Final residual = 9.86475e-10, No Iterations 3
DILUPBiCGStab:  Solving for Uy, Initial residual = 0.00774026, Final residual = 8.97463e-09, No Iterations 3
DILUPBiCGStab:  Solving for O2, Initial residual = 0.00461666, Final residual = 5.0608e-09, No Iterations 3
DILUPBiCGStab:  Solving for H2O, Initial residual = 0.00461667, Final residual = 5.06081e-09, No Iterations 3
DILUPBiCGStab:  Solving for CH4, Initial residual = 0, Final residual = 0, No Iterations 0
DILUPBiCGStab:  Solving for CO2, Initial residual = 0.00461667, Final residual = 5.06081e-09, No Iterations 3
DILUPBiCGStab:  Solving for h, Initial residual = 0.00538763, Final residual = 5.34406e-09, No Iterations 3
min/max(T) = 300, 1044.99
GAMGPCG:  Solving for p_rgh, Initial residual = 0.0216299, Final residual = 2.25023e-07, No Iterations 5
diagonal:  Solving for rho, Initial residual = 0, Final residual = 0, No Iterations 0
time step continuity errors : sum local = 1.84667e-08, global = -9.80721e-10, cumulative = -1.82131e-07
GAMGPCG:  Solving for p_rgh, Initial residual = 0.00331307, Final residual = 4.22753e-07, No Iterations 4
diagonal:  Solving for rho, Initial residual = 0, Final residual = 0, No Iterations 0
time step continuity errors : sum local = 3.2258e-08, global = 1.88295e-09, cumulative = -1.80248e-07
DILUPBiCGStab:  Solving for omega, Initial residual = 0.000164843, Final residual = 1.46098e-09, No Iterations 2
DILUPBiCGStab:  Solving for k, Initial residual = 0.0089198, Final residual = 4.2273e-09, No Iterations 3

ExecutionTime = 1.96 s  ClockTime = 2 s

    Overall     = 0.00191226, 0.01
Time = 264

diagonal:  Solving for rho, Initial residual = 0, Final residual = 0, No Iterations 0

Execution time for mesh.update() = 0 s

DILUPBiCGStab:  Solving for Ux, Initial residual = 0.00778744, Final residual = 9.88896e-09, No Iterations 3
DILUPBiCGStab:  Solving for Uy, Initial residual = 0.00771304, Final residual = 9.48858e-09, No Iterations 3
DILUPBiCGStab:  Solving for O2, Initial residual = 0.00460857, Final residual = 4.75882e-09, No Iterations 3
DILUPBiCGStab:  Solving for H2O, Initial residual = 0.00460858, Final residual = 4.75884e-09, No Iterations 3
DILUPBiCGStab:  Solving for CH4, Initial residual = 0, Final residual = 0, No Iterations 0
DILUPBiCGStab:  Solving for CO2, Initial residual = 0.00460858, Final residual = 4.75884e-09, No Iterations 3
DILUPBiCGStab:  Solving for h, Initial residual = 0.00537617, Final residual = 4.94912e-09, No Iterations 3
min/max(T) = 300, 1044.99
GAMGPCG:  Solving for p_rgh, Initial residual = 0.0211122, Final residual = 1.86409e-07, No Iterations 5
diagonal:  Solving for rho, Initial residual = 0, Final residual = 0, No Iterations 0
time step continuity errors : sum local = 1.53106e-08, global = -8.74632e-10, cumulative = -1.81122e-07
GAMGPCG:  Solving for p_rgh, Initial residual = 0.00346406, Final residual = 3.96973e-07, No Iterations 4
diagonal:  Solving for rho, Initial residual = 0, Final residual = 0, No Iterations 0
time step continuity errors : sum local = 3.05022e-08, global = 2.14325e-09, cumulative = -1.78979e-07
DILUPBiCGStab:  Solving for omega, Initial residual = 0.000163296, Final residual = 1.51046e-09, No Iterations 2
DILUPBiCGStab:  Solving for k, Initial residual = 0.00895649, Final residual = 6.52884e-09, No Iterations 3

ExecutionTime = 2.08 s  ClockTime = 2 s

    Overall     = 0.00191423, 0.01
Time = 265

diagonal:  Solving for rho, Initial residual = 0, Final residual = 0, No Iterations 0

Execution time for mesh.update() = 0 s

DILUPBiCGStab:  Solving for Ux, Initial residual = 0.00778013, Final residual = 9.11452e-09, No Iterations 3
DILUPBiCGStab:  Solving for Uy, Initial residual = 0.00764767, Final residual = 8.69356e-09, No Iterations 3
DILUPBiCGStab:  Solving for O2, Initial residual = 0.00460175, Final residual = 4.55401e-09, No Iterations 3
DILUPBiCGStab:  Solving for H2O, Initial residual = 0.00460176, Final residual = 4.554e-09, No Iterations 3
DILUPBiCGStab:  Solving for CH4, Initial residual = 0, Final residual = 0, No Iterations 0
DILUPBiCGStab:  Solving for CO2, Initial residual = 0.00460176, Final residual = 4.554e-09, No Iterations 3
DILUPBiCGStab:  Solving for h, Initial residual = 0.00536698, Final residual = 4.84622e-09, No Iterations 3
min/max(T) = 300, 1044.99
GAMGPCG:  Solving for p_rgh, Initial residual = 0.0207204, Final residual = 1.75543e-07, No Iterations 5
diagonal:  Solving for rho, Initial residual = 0, Final residual = 0, No Iterations 0
time step continuity errors : sum local = 1.43965e-08, global = -3.64768e-10, cumulative = -1.79344e-07
GAMGPCG:  Solving for p_rgh, Initial residual = 0.00322843, Final residual = 4.46087e-07, No Iterations 4
diagonal:  Solving for rho, Initial residual = 0, Final residual = 0, No Iterations 0
time step continuity errors : sum local = 3.41969e-08, global = 2.50344e-09, cumulative = -1.7684e-07
DILUPBiCGStab:  Solving for omega, Initial residual = 0.00016413, Final residual = 1.40415e-09, No Iterations 2
DILUPBiCGStab:  Solving for k, Initial residual = 0.00896585, Final residual = 1.79756e-09, No Iterations 3

ExecutionTime = 2.2 s  ClockTime = 3 s

    Overall     = 0.00191654, 0.01
Time = 266

diagonal:  Solving for rho, Initial residual = 0, Final residual = 0, No Iterations 0

Execution time for mesh.update() = 0 s

DILUPBiCGStab:  Solving for Ux, Initial residual = 0.0077783, Final residual = 7.82677e-09, No Iterations 3
DILUPBiCGStab:  Solving for Uy, Initial residual = 0.00759929, Final residual = 8.26527e-09, No Iterations 3
DILUPBiCGStab:  Solving for O2, Initial residual = 0.00458883, Final residual = 4.20474e-09, No Iterations 3
DILUPBiCGStab:  Solving for H2O, Initial residual = 0.00458884, Final residual = 4.20471e-09, No Iterations 3
DILUPBiCGStab:  Solving for CH4, Initial residual = 0, Final residual = 0, No Iterations 0
DILUPBiCGStab:  Solving for CO2, Initial residual = 0.00458884, Final residual = 4.20471e-09, No Iterations 3
DILUPBiCGStab:  Solving for h, Initial residual = 0.00535987, Final residual = 4.43975e-09, No Iterations 3
min/max(T) = 300, 1044.99
GAMGPCG:  Solving for p_rgh, Initial residual = 0.0217602, Final residual = 1.88019e-07, No Iterations 5
diagonal:  Solving for rho, Initial residual = 0, Final residual = 0, No Iterations 0
time step continuity errors : sum local = 1.52708e-08, global = -6.97684e-10, cumulative = -1.77538e-07
GAMGPCG:  Solving for p_rgh, Initial residual = 0.00337788, Final residual = 4.65394e-07, No Iterations 4
diagonal:  Solving for rho, Initial residual = 0, Final residual = 0, No Iterations 0
time step continuity errors : sum local = 3.56129e-08, global = 2.56653e-09, cumulative = -1.74971e-07
DILUPBiCGStab:  Solving for omega, Initial residual = 0.000163194, Final residual = 1.44497e-09, No Iterations 2
DILUPBiCGStab:  Solving for k, Initial residual = 0.00898338, Final residual = 4.41461e-09, No Iterations 3

ExecutionTime = 2.32 s  ClockTime = 3 s

    Overall     = 0.00191746, 0.01
Time = 267

diagonal:  Solving for rho, Initial residual = 0, Final residual = 0, No Iterations 0

Execution time for mesh.update() = 0 s

DILUPBiCGStab:  Solving for Ux, Initial residual = 0.0077739, Final residual = 7.71807e-09, No Iterations 3
DILUPBiCGStab:  Solving for Uy, Initial residual = 0.00760015, Final residual = 7.15292e-10, No Iterations 3
DILUPBiCGStab:  Solving for O2, Initial residual = 0.00457604, Final residual = 3.87215e-09, No Iterations 3
DILUPBiCGStab:  Solving for H2O, Initial residual = 0.00457605, Final residual = 3.87211e-09, No Iterations 3
DILUPBiCGStab:  Solving for CH4, Initial residual = 0, Final residual = 0, No Iterations 0
DILUPBiCGStab:  Solving for CO2, Initial residual = 0.00457605, Final residual = 3.87211e-09, No Iterations 3
DILUPBiCGStab:  Solving for h, Initial residual = 0.00534618, Final residual = 4.17717e-09, No Iterations 3
min/max(T) = 300, 1044.99
GAMGPCG:  Solving for p_rgh, Initial residual = 0.021512, Final residual = 1.74261e-07, No Iterations 5
diagonal:  Solving for rho, Initial residual = 0, Final residual = 0, No Iterations 0
time step continuity errors : sum local = 1.41789e-08, global = -7.07463e-10, cumulative = -1.75679e-07
GAMGPCG:  Solving for p_rgh, Initial residual = 0.00349296, Final residual = 4.31619e-07, No Iterations 4
diagonal:  Solving for rho, Initial residual = 0, Final residual = 0, No Iterations 0
time step continuity errors : sum local = 3.31036e-08, global = 2.74354e-09, cumulative = -1.72935e-07
DILUPBiCGStab:  Solving for omega, Initial residual = 0.000162648, Final residual = 1.38181e-09, No Iterations 2
DILUPBiCGStab:  Solving for k, Initial residual = 0.00897214, Final residual = 3.87648e-09, No Iterations 3

ExecutionTime = 2.44 s  ClockTime = 3 s

    Overall     = 0.00191902, 0.01
Time = 268

diagonal:  Solving for rho, Initial residual = 0, Final residual = 0, No Iterations 0

Execution time for mesh.update() = 0 s

DILUPBiCGStab:  Solving for Ux, Initial residual = 0.00778042, Final residual = 7.33291e-09, No Iterations 3
DILUPBiCGStab:  Solving for Uy, Initial residual = 0.00754974, Final residual = 9.01279e-09, No Iterations 3
DILUPBiCGStab:  Solving for O2, Initial residual = 0.0045539, Final residual = 4.15106e-09, No Iterations 3
DILUPBiCGStab:  Solving for H2O, Initial residual = 0.00455391, Final residual = 4.15103e-09, No Iterations 3
DILUPBiCGStab:  Solving for CH4, Initial residual = 0, Final residual = 0, No Iterations 0
DILUPBiCGStab:  Solving for CO2, Initial residual = 0.00455391, Final residual = 4.15103e-09, No Iterations 3
DILUPBiCGStab:  Solving for h, Initial residual = 0.00532417, Final residual = 4.2985e-09, No Iterations 3
min/max(T) = 300, 1044.99
GAMGPCG:  Solving for p_rgh, Initial residual = 0.0216918, Final residual = 1.67251e-07, No Iterations 5
diagonal:  Solving for rho, Initial residual = 0, Final residual = 0, No Iterations 0
time step continuity errors : sum local = 1.34349e-08, global = -1.37842e-09, cumulative = -1.74314e-07
GAMGPCG:  Solving for p_rgh, Initial residual = 0.00349944, Final residual = 4.31925e-07, No Iterations 4
diagonal:  Solving for rho, Initial residual = 0, Final residual = 0, No Iterations 0
time step continuity errors : sum local = 3.30349e-08, global = 2.92203e-09, cumulative = -1.71392e-07
DILUPBiCGStab:  Solving for omega, Initial residual = 0.000160727, Final residual = 1.40778e-09, No Iterations 2
DILUPBiCGStab:  Solving for k, Initial residual = 0.00895843, Final residual = 3.94482e-09, No Iterations 3

ExecutionTime = 2.56 s  ClockTime = 3 s

    Overall     = 0.00191941, 0.01
Time = 269

diagonal:  Solving for rho, Initial residual = 0, Final residual = 0, No Iterations 0

Execution time for mesh.update() = 0 s

DILUPBiCGStab:  Solving for Ux, Initial residual = 0.00776307, Final residual = 7.42458e-09, No Iterations 3
DILUPBiCGStab:  Solving for Uy, Initial residual = 0.00752471, Final residual = 6.65217e-10, No Iterations 3
DILUPBiCGStab:  Solving for O2, Initial residual = 0.00451781, Final residual = 4.42565e-09, No Iterations 3
DILUPBiCGStab:  Solving for H2O, Initial residual = 0.00451782, Final residual = 4.42564e-09, No Iterations 3
DILUPBiCGStab:  Solving for CH4, Initial residual = 0, Final residual = 0, No Iterations 0
DILUPBiCGStab:  Solving for CO2, Initial residual = 0.00451782, Final residual = 4.42564e-09, No Iterations 3
DILUPBiCGStab:  Solving for h, Initial residual = 0.00528256, Final residual = 4.70553e-09, No Iterations 3
min/max(T) = 300, 1044.99
GAMGPCG:  Solving for p_rgh, Initial residual = 0.0218522, Final residual = 1.63893e-07, No Iterations 5
diagonal:  Solving for rho, Initial residual = 0, Final residual = 0, No Iterations 0
time step continuity errors : sum local = 1.31841e-08, global = -8.36184e-10, cumulative = -1.72228e-07
GAMGPCG:  Solving for p_rgh, Initial residual = 0.00353766, Final residual = 4.21396e-07, No Iterations 4
diagonal:  Solving for rho, Initial residual = 0, Final residual = 0, No Iterations 0
time step continuity errors : sum local = 3.21243e-08, global = 2.74432e-09, cumulative = -1.69484e-07
DILUPBiCGStab:  Solving for omega, Initial residual = 0.000161221, Final residual = 1.3547e-09, No Iterations 2
DILUPBiCGStab:  Solving for k, Initial residual = 0.0089032, Final residual = 3.89033e-09, No Iterations 3

ExecutionTime = 2.68 s  ClockTime = 3 s

    Overall     = 0.00192003, 0.01
Time = 270

diagonal:  Solving for rho, Initial residual = 0, Final residual = 0, No Iterations 0

Execution time for mesh.update() = 0 s

DILUPBiCGStab:  Solving for Ux, Initial residual = 0.00774664, Final residual = 7.25698e-09, No Iterations 3
DILUPBiCGStab:  Solving for Uy, Initial residual = 0.00745036, Final residual = 7.16643e-09, No Iterations 3
GAMGPCG:  Solving for G, Initial residual = 0.159703, Final residual = 7.72144e-05, No Iterations 6
DILUPBiCGStab:  Solving for O2, Initial residual = 0.00448353, Final residual = 4.23642e-09, No Iterations 3
DILUPBiCGStab:  Solving for H2O, Initial residual = 0.00448354, Final residual = 4.23642e-09, No Iterations 3
DILUPBiCGStab:  Solving for CH4, Initial residual = 0, Final residual = 0, No Iterations 0
DILUPBiCGStab:  Solving for CO2, Initial residual = 0.00448354, Final residual = 4.23641e-09, No Iterations 3
DILUPBiCGStab:  Solving for h, Initial residual = 0.00524185, Final residual = 4.21685e-09, No Iterations 3
min/max(T) = 300, 1044.99
GAMGPCG:  Solving for p_rgh, Initial residual = 0.0216544, Final residual = 1.42663e-07, No Iterations 5
diagonal:  Solving for rho, Initial residual = 0, Final residual = 0, No Iterations 0
time step continuity errors : sum local = 1.1504e-08, global = -1.822e-09, cumulative = -1.71306e-07
GAMGPCG:  Solving for p_rgh, Initial residual = 0.00349912, Final residual = 3.99523e-07, No Iterations 4
diagonal:  Solving for rho, Initial residual = 0, Final residual = 0, No Iterations 0
time step continuity errors : sum local = 3.04246e-08, global = 3.16008e-09, cumulative = -1.68146e-07
DILUPBiCGStab:  Solving for omega, Initial residual = 0.000158079, Final residual = 1.40122e-09, No Iterations 2
DILUPBiCGStab:  Solving for k, Initial residual = 0.0088487, Final residual = 3.97476e-09, No Iterations 3

ExecutionTime = 2.94 s  ClockTime = 3 s

    Overall     = 0.00191963, 0.01
Time = 271

diagonal:  Solving for rho, Initial residual = 0, Final residual = 0, No Iterations 0

Execution time for mesh.update() = 0 s

DILUPBiCGStab:  Solving for Ux, Initial residual = 0.00774699, Final residual = 6.98915e-09, No Iterations 3
DILUPBiCGStab:  Solving for Uy, Initial residual = 0.00739108, Final residual = 6.07616e-09, No Iterations 3
DILUPBiCGStab:  Solving for O2, Initial residual = 0.00443937, Final residual = 4.36346e-09, No Iterations 3
DILUPBiCGStab:  Solving for H2O, Initial residual = 0.00443938, Final residual = 4.36347e-09, No Iterations 3
DILUPBiCGStab:  Solving for CH4, Initial residual = 0, Final residual = 0, No Iterations 0
DILUPBiCGStab:  Solving for CO2, Initial residual = 0.00443938, Final residual = 4.36347e-09, No Iterations 3
DILUPBiCGStab:  Solving for h, Initial residual = 0.00519116, Final residual = 4.36615e-09, No Iterations 3
min/max(T) = 300, 1044.99
GAMGPCG:  Solving for p_rgh, Initial residual = 0.0213279, Final residual = 2.01792e-07, No Iterations 5
diagonal:  Solving for rho, Initial residual = 0, Final residual = 0, No Iterations 0
time step continuity errors : sum local = 1.60538e-08, global = -1.76947e-09, cumulative = -1.69915e-07
GAMGPCG:  Solving for p_rgh, Initial residual = 0.00351887, Final residual = 4.06811e-07, No Iterations 4
diagonal:  Solving for rho, Initial residual = 0, Final residual = 0, No Iterations 0
time step continuity errors : sum local = 3.12412e-08, global = 3.24708e-09, cumulative = -1.66668e-07
DILUPBiCGStab:  Solving for omega, Initial residual = 0.000155749, Final residual = 1.35297e-09, No Iterations 2
DILUPBiCGStab:  Solving for k, Initial residual = 0.00877837, Final residual = 4.33177e-09, No Iterations 3

ExecutionTime = 3.06 s  ClockTime = 3 s

    Overall     = 0.00191938, 0.01
Time = 272

diagonal:  Solving for rho, Initial residual = 0, Final residual = 0, No Iterations 0

Execution time for mesh.update() = 0 s

DILUPBiCGStab:  Solving for Ux, Initial residual = 0.00770614, Final residual = 7.13043e-09, No Iterations 3
DILUPBiCGStab:  Solving for Uy, Initial residual = 0.00729154, Final residual = 6.05819e-09, No Iterations 3
DILUPBiCGStab:  Solving for O2, Initial residual = 0.00438369, Final residual = 4.69918e-09, No Iterations 3
DILUPBiCGStab:  Solving for H2O, Initial residual = 0.00438371, Final residual = 4.69919e-09, No Iterations 3
DILUPBiCGStab:  Solving for CH4, Initial residual = 0, Final residual = 0, No Iterations 0
DILUPBiCGStab:  Solving for CO2, Initial residual = 0.00438371, Final residual = 4.69918e-09, No Iterations 3
DILUPBiCGStab:  Solving for h, Initial residual = 0.00512636, Final residual = 4.62171e-09, No Iterations 3
min/max(T) = 300, 1044.99
GAMGPCG:  Solving for p_rgh, Initial residual = 0.0209179, Final residual = 1.55802e-07, No Iterations 5
diagonal:  Solving for rho, Initial residual = 0, Final residual = 0, No Iterations 0
time step continuity errors : sum local = 1.2342e-08, global = -1.9579e-09, cumulative = -1.68626e-07
GAMGPCG:  Solving for p_rgh, Initial residual = 0.0034357, Final residual = 4.08988e-07, No Iterations 4
diagonal:  Solving for rho, Initial residual = 0, Final residual = 0, No Iterations 0
time step continuity errors : sum local = 3.12673e-08, global = 3.39983e-09, cumulative = -1.65226e-07
DILUPBiCGStab:  Solving for omega, Initial residual = 0.000155912, Final residual = 1.45066e-09, No Iterations 2
DILUPBiCGStab:  Solving for k, Initial residual = 0.00869344, Final residual = 5.85713e-09, No Iterations 3

ExecutionTime = 3.18 s  ClockTime = 4 s

    Overall     = 0.00191832, 0.01
Time = 273

diagonal:  Solving for rho, Initial residual = 0, Final residual = 0, No Iterations 0

Execution time for mesh.update() = 0 s

DILUPBiCGStab:  Solving for Ux, Initial residual = 0.0076946, Final residual = 6.81649e-09, No Iterations 3
DILUPBiCGStab:  Solving for Uy, Initial residual = 0.00722438, Final residual = 5.49138e-09, No Iterations 3
DILUPBiCGStab:  Solving for O2, Initial residual = 0.0043394, Final residual = 4.75548e-09, No Iterations 3
DILUPBiCGStab:  Solving for H2O, Initial residual = 0.00433941, Final residual = 4.75549e-09, No Iterations 3
DILUPBiCGStab:  Solving for CH4, Initial residual = 0, Final residual = 0, No Iterations 0
DILUPBiCGStab:  Solving for CO2, Initial residual = 0.00433941, Final residual = 4.75549e-09, No Iterations 3
DILUPBiCGStab:  Solving for h, Initial residual = 0.00506954, Final residual = 4.83455e-09, No Iterations 3
min/max(T) = 300, 1044.99
GAMGPCG:  Solving for p_rgh, Initial residual = 0.0216341, Final residual = 1.67278e-07, No Iterations 5
diagonal:  Solving for rho, Initial residual = 0, Final residual = 0, No Iterations 0
time step continuity errors : sum local = 1.33048e-08, global = -1.62498e-09, cumulative = -1.66851e-07
GAMGPCG:  Solving for p_rgh, Initial residual = 0.00341237, Final residual = 4.59878e-07, No Iterations 4
diagonal:  Solving for rho, Initial residual = 0, Final residual = 0, No Iterations 0
time step continuity errors : sum local = 3.49585e-08, global = 3.56785e-09, cumulative = -1.63283e-07
DILUPBiCGStab:  Solving for omega, Initial residual = 0.000152741, Final residual = 1.36832e-09, No Iterations 2
DILUPBiCGStab:  Solving for k, Initial residual = 0.00862291, Final residual = 5.69937e-09, No Iterations 3

ExecutionTime = 3.29 s  ClockTime = 4 s

    Overall     = 0.00191727, 0.01
Time = 274

diagonal:  Solving for rho, Initial residual = 0, Final residual = 0, No Iterations 0

Execution time for mesh.update() = 0 s

DILUPBiCGStab:  Solving for Ux, Initial residual = 0.00768647, Final residual = 6.78629e-09, No Iterations 3
DILUPBiCGStab:  Solving for Uy, Initial residual = 0.00717501, Final residual = 5.30381e-09, No Iterations 3
DILUPBiCGStab:  Solving for O2, Initial residual = 0.00427806, Final residual = 4.88492e-09, No Iterations 3
DILUPBiCGStab:  Solving for H2O, Initial residual = 0.00427807, Final residual = 4.88493e-09, No Iterations 3
DILUPBiCGStab:  Solving for CH4, Initial residual = 0, Final residual = 0, No Iterations 0
DILUPBiCGStab:  Solving for CO2, Initial residual = 0.00427807, Final residual = 4.88493e-09, No Iterations 3
DILUPBiCGStab:  Solving for h, Initial residual = 0.00500342, Final residual = 4.94221e-09, No Iterations 3
min/max(T) = 300, 1044.99
GAMGPCG:  Solving for p_rgh, Initial residual = 0.0214702, Final residual = 9.08198e-07, No Iterations 4
diagonal:  Solving for rho, Initial residual = 0, Final residual = 0, No Iterations 0
time step continuity errors : sum local = 7.3826e-08, global = 1.00782e-08, cumulative = -1.53205e-07
GAMGPCG:  Solving for p_rgh, Initial residual = 0.00353085, Final residual = 4.08943e-07, No Iterations 4
diagonal:  Solving for rho, Initial residual = 0, Final residual = 0, No Iterations 0
time step continuity errors : sum local = 3.11523e-08, global = 3.08226e-09, cumulative = -1.50123e-07
DILUPBiCGStab:  Solving for omega, Initial residual = 0.000151075, Final residual = 1.47803e-09, No Iterations 2
DILUPBiCGStab:  Solving for k, Initial residual = 0.00854021, Final residual = 1.59486e-09, No Iterations 3

ExecutionTime = 3.41 s  ClockTime = 4 s

    Overall     = 0.00191574, 0.01
Time = 275

diagonal:  Solving for rho, Initial residual = 0, Final residual = 0, No Iterations 0

Execution time for mesh.update() = 0 s

DILUPBiCGStab:  Solving for Ux, Initial residual = 0.00766205, Final residual = 6.45045e-09, No Iterations 3
DILUPBiCGStab:  Solving for Uy, Initial residual = 0.00708218, Final residual = 4.82717e-09, No Iterations 3
DILUPBiCGStab:  Solving for O2, Initial residual = 0.00421617, Final residual = 3.89651e-09, No Iterations 3
DILUPBiCGStab:  Solving for H2O, Initial residual = 0.00421618, Final residual = 3.89652e-09, No Iterations 3
DILUPBiCGStab:  Solving for CH4, Initial residual = 0, Final residual = 0, No Iterations 0
DILUPBiCGStab:  Solving for CO2, Initial residual = 0.00421618, Final residual = 3.89652e-09, No Iterations 3
DILUPBiCGStab:  Solving for h, Initial residual = 0.00492828, Final residual = 3.88792e-09, No Iterations 3
min/max(T) = 300, 1044.99
GAMGPCG:  Solving for p_rgh, Initial residual = 0.0213745, Final residual = 8.58917e-07, No Iterations 4
diagonal:  Solving for rho, Initial residual = 0, Final residual = 0, No Iterations 0
time step continuity errors : sum local = 6.96208e-08, global = -8.39228e-09, cumulative = -1.58515e-07
GAMGPCG:  Solving for p_rgh, Initial residual = 0.00349927, Final residual = 3.95255e-07, No Iterations 4
diagonal:  Solving for rho, Initial residual = 0, Final residual = 0, No Iterations 0
time step continuity errors : sum local = 3.02861e-08, global = 2.98642e-09, cumulative = -1.55528e-07
DILUPBiCGStab:  Solving for omega, Initial residual = 0.000151216, Final residual = 1.42686e-09, No Iterations 2
DILUPBiCGStab:  Solving for k, Initial residual = 0.00846706, Final residual = 2.01461e-09, No Iterations 3

ExecutionTime = 3.53 s  ClockTime = 4 s

    Overall     = 0.00191424, 0.01
Time = 276

diagonal:  Solving for rho, Initial residual = 0, Final residual = 0, No Iterations 0

Execution time for mesh.update() = 0 s

DILUPBiCGStab:  Solving for Ux, Initial residual = 0.00760828, Final residual = 6.73663e-09, No Iterations 3
DILUPBiCGStab:  Solving for Uy, Initial residual = 0.00699668, Final residual = 4.87686e-09, No Iterations 3
DILUPBiCGStab:  Solving for O2, Initial residual = 0.00415597, Final residual = 3.91419e-09, No Iterations 3
DILUPBiCGStab:  Solving for H2O, Initial residual = 0.00415598, Final residual = 3.91421e-09, No Iterations 3
DILUPBiCGStab:  Solving for CH4, Initial residual = 0, Final residual = 0, No Iterations 0
DILUPBiCGStab:  Solving for CO2, Initial residual = 0.00415598, Final residual = 3.91421e-09, No Iterations 3
DILUPBiCGStab:  Solving for h, Initial residual = 0.00486406, Final residual = 3.81511e-09, No Iterations 3
min/max(T) = 300, 1044.99
GAMGPCG:  Solving for p_rgh, Initial residual = 0.0219613, Final residual = 6.35774e-07, No Iterations 4
diagonal:  Solving for rho, Initial residual = 0, Final residual = 0, No Iterations 0
time step continuity errors : sum local = 5.06245e-08, global = 7.02799e-09, cumulative = -1.485e-07
GAMGPCG:  Solving for p_rgh, Initial residual = 0.00338765, Final residual = 3.88168e-07, No Iterations 4
diagonal:  Solving for rho, Initial residual = 0, Final residual = 0, No Iterations 0
time step continuity errors : sum local = 2.98475e-08, global = 2.19936e-09, cumulative = -1.46301e-07
DILUPBiCGStab:  Solving for omega, Initial residual = 0.000148624, Final residual = 1.54176e-09, No Iterations 2
DILUPBiCGStab:  Solving for k, Initial residual = 0.00839666, Final residual = 7.08251e-09, No Iterations 3

ExecutionTime = 3.65 s  ClockTime = 4 s

    Overall     = 0.00191233, 0.01
Time = 277

diagonal:  Solving for rho, Initial residual = 0, Final residual = 0, No Iterations 0

Execution time for mesh.update() = 0 s

DILUPBiCGStab:  Solving for Ux, Initial residual = 0.0075587, Final residual = 6.52051e-09, No Iterations 3
DILUPBiCGStab:  Solving for Uy, Initial residual = 0.00694794, Final residual = 4.94397e-09, No Iterations 3
DILUPBiCGStab:  Solving for O2, Initial residual = 0.0040996, Final residual = 3.84534e-09, No Iterations 3
DILUPBiCGStab:  Solving for H2O, Initial residual = 0.00409962, Final residual = 3.84536e-09, No Iterations 3
DILUPBiCGStab:  Solving for CH4, Initial residual = 0, Final residual = 0, No Iterations 0
DILUPBiCGStab:  Solving for CO2, Initial residual = 0.00409962, Final residual = 3.84536e-09, No Iterations 3
DILUPBiCGStab:  Solving for h, Initial residual = 0.00479906, Final residual = 3.74693e-09, No Iterations 3
min/max(T) = 300, 1044.99
GAMGPCG:  Solving for p_rgh, Initial residual = 0.0216903, Final residual = 7.41541e-07, No Iterations 4
diagonal:  Solving for rho, Initial residual = 0, Final residual = 0, No Iterations 0
time step continuity errors : sum local = 5.92977e-08, global = -8.30481e-09, cumulative = -1.54606e-07
GAMGPCG:  Solving for p_rgh, Initial residual = 0.00359668, Final residual = 3.72283e-07, No Iterations 4
diagonal:  Solving for rho, Initial residual = 0, Final residual = 0, No Iterations 0
time step continuity errors : sum local = 2.86114e-08, global = 2.19246e-09, cumulative = -1.52413e-07
DILUPBiCGStab:  Solving for omega, Initial residual = 0.000146186, Final residual = 1.48476e-09, No Iterations 2
DILUPBiCGStab:  Solving for k, Initial residual = 0.0083084, Final residual = 5.07529e-09, No Iterations 3

ExecutionTime = 3.76 s  ClockTime = 4 s

    Overall     = 0.0019107, 0.01
Time = 278

diagonal:  Solving for rho, Initial residual = 0, Final residual = 0, No Iterations 0

Execution time for mesh.update() = 0 s

DILUPBiCGStab:  Solving for Ux, Initial residual = 0.00751123, Final residual = 6.57214e-09, No Iterations 3
DILUPBiCGStab:  Solving for Uy, Initial residual = 0.00685279, Final residual = 4.62993e-09, No Iterations 3
DILUPBiCGStab:  Solving for O2, Initial residual = 0.00404059, Final residual = 4.07338e-09, No Iterations 3
DILUPBiCGStab:  Solving for H2O, Initial residual = 0.0040406, Final residual = 4.0734e-09, No Iterations 3
DILUPBiCGStab:  Solving for CH4, Initial residual = 0, Final residual = 0, No Iterations 0
DILUPBiCGStab:  Solving for CO2, Initial residual = 0.0040406, Final residual = 4.0734e-09, No Iterations 3
DILUPBiCGStab:  Solving for h, Initial residual = 0.00473456, Final residual = 4.00928e-09, No Iterations 3
min/max(T) = 300, 1044.99
GAMGPCG:  Solving for p_rgh, Initial residual = 0.0214478, Final residual = 8.16056e-07, No Iterations 4
diagonal:  Solving for rho, Initial residual = 0, Final residual = 0, No Iterations 0
time step continuity errors : sum local = 6.54526e-08, global = -1.04587e-08, cumulative = -1.62872e-07
GAMGPCG:  Solving for p_rgh, Initial residual = 0.00341952, Final residual = 4.09259e-07, No Iterations 4
diagonal:  Solving for rho, Initial residual = 0, Final residual = 0, No Iterations 0
time step continuity errors : sum local = 3.17288e-08, global = 2.31761e-09, cumulative = -1.60555e-07
DILUPBiCGStab:  Solving for omega, Initial residual = 0.000146016, Final residual = 1.59354e-09, No Iterations 2
DILUPBiCGStab:  Solving for k, Initial residual = 0.0082602, Final residual = 4.16989e-09, No Iterations 3

ExecutionTime = 3.88 s  ClockTime = 4 s

    Overall     = 0.0019087, 0.01
Time = 279

diagonal:  Solving for rho, Initial residual = 0, Final residual = 0, No Iterations 0

Execution time for mesh.update() = 0 s

DILUPBiCGStab:  Solving for Ux, Initial residual = 0.00747347, Final residual = 6.28788e-09, No Iterations 3
DILUPBiCGStab:  Solving for Uy, Initial residual = 0.00678222, Final residual = 4.4759e-09, No Iterations 3
DILUPBiCGStab:  Solving for O2, Initial residual = 0.00399101, Final residual = 5.26536e-09, No Iterations 3
DILUPBiCGStab:  Solving for H2O, Initial residual = 0.00399103, Final residual = 5.26535e-09, No Iterations 3
DILUPBiCGStab:  Solving for CH4, Initial residual = 0, Final residual = 0, No Iterations 0
DILUPBiCGStab:  Solving for CO2, Initial residual = 0.00399103, Final residual = 5.26536e-09, No Iterations 3
DILUPBiCGStab:  Solving for h, Initial residual = 0.00467449, Final residual = 5.95431e-09, No Iterations 3
min/max(T) = 300, 1044.99
GAMGPCG:  Solving for p_rgh, Initial residual = 0.0222871, Final residual = 7.94526e-07, No Iterations 4
diagonal:  Solving for rho, Initial residual = 0, Final residual = 0, No Iterations 0
time step continuity errors : sum local = 6.39825e-08, global = 1.39806e-09, cumulative = -1.59156e-07
GAMGPCG:  Solving for p_rgh, Initial residual = 0.00355817, Final residual = 4.34467e-07, No Iterations 4
diagonal:  Solving for rho, Initial residual = 0, Final residual = 0, No Iterations 0
time step continuity errors : sum local = 3.3648e-08, global = 2.68921e-09, cumulative = -1.56467e-07
DILUPBiCGStab:  Solving for omega, Initial residual = 0.000145164, Final residual = 1.4642e-09, No Iterations 2
DILUPBiCGStab:  Solving for k, Initial residual = 0.0082388, Final residual = 3.54511e-09, No Iterations 3

ExecutionTime = 4 s  ClockTime = 4 s

    Overall     = 0.00190707, 0.01
Time = 280

diagonal:  Solving for rho, Initial residual = 0, Final residual = 0, No Iterations 0

Execution time for mesh.update() = 0 s

DILUPBiCGStab:  Solving for Ux, Initial residual = 0.00741299, Final residual = 6.24665e-09, No Iterations 3
DILUPBiCGStab:  Solving for Uy, Initial residual = 0.00674354, Final residual = 4.59133e-09, No Iterations 3
GAMGPCG:  Solving for G, Initial residual = 0.165055, Final residual = 7.18745e-05, No Iterations 7
DILUPBiCGStab:  Solving for O2, Initial residual = 0.00393549, Final residual = 8.73609e-09, No Iterations 3
DILUPBiCGStab:  Solving for H2O, Initial residual = 0.0039355, Final residual = 8.73603e-09, No Iterations 3
DILUPBiCGStab:  Solving for CH4, Initial residual = 0, Final residual = 0, No Iterations 0
DILUPBiCGStab:  Solving for CO2, Initial residual = 0.0039355, Final residual = 8.73607e-09, No Iterations 3
DILUPBiCGStab:  Solving for h, Initial residual = 0.00461358, Final residual = 1.00733e-09, No Iterations 3
min/max(T) = 300, 1044.99
GAMGPCG:  Solving for p_rgh, Initial residual = 0.0213258, Final residual = 8.3364e-07, No Iterations 4
diagonal:  Solving for rho, Initial residual = 0, Final residual = 0, No Iterations 0
time step continuity errors : sum local = 6.83636e-08, global = 8.93291e-09, cumulative = -1.47534e-07
GAMGPCG:  Solving for p_rgh, Initial residual = 0.00362688, Final residual = 3.95045e-07, No Iterations 4
diagonal:  Solving for rho, Initial residual = 0, Final residual = 0, No Iterations 0
time step continuity errors : sum local = 3.04546e-08, global = 2.77646e-09, cumulative = -1.44758e-07
DILUPBiCGStab:  Solving for omega, Initial residual = 0.000144206, Final residual = 1.53024e-09, No Iterations 2
DILUPBiCGStab:  Solving for k, Initial residual = 0.0082296, Final residual = 3.29133e-09, No Iterations 3

ExecutionTime = 4.26 s  ClockTime = 5 s

    Overall     = 0.00190488, 0.01
Time = 281

diagonal:  Solving for rho, Initial residual = 0, Final residual = 0, No Iterations 0

Execution time for mesh.update() = 0 s

DILUPBiCGStab:  Solving for Ux, Initial residual = 0.00733136, Final residual = 5.55583e-09, No Iterations 3
DILUPBiCGStab:  Solving for Uy, Initial residual = 0.00663344, Final residual = 4.35309e-09, No Iterations 3
DILUPBiCGStab:  Solving for O2, Initial residual = 0.0038967, Final residual = 8.48639e-09, No Iterations 3
DILUPBiCGStab:  Solving for H2O, Initial residual = 0.00389671, Final residual = 8.48572e-09, No Iterations 3
DILUPBiCGStab:  Solving for CH4, Initial residual = 0, Final residual = 0, No Iterations 0
DILUPBiCGStab:  Solving for CO2, Initial residual = 0.00389671, Final residual = 8.48602e-09, No Iterations 3
DILUPBiCGStab:  Solving for h, Initial residual = 0.00456778, Final residual = 5.49047e-11, No Iterations 4
min/max(T) = 300, 1044.99
GAMGPCG:  Solving for p_rgh, Initial residual = 0.0215347, Final residual = 7.80693e-07, No Iterations 4
diagonal:  Solving for rho, Initial residual = 0, Final residual = 0, No Iterations 0
time step continuity errors : sum local = 6.27045e-08, global = 1.88589e-09, cumulative = -1.42872e-07
GAMGPCG:  Solving for p_rgh, Initial residual = 0.00349603, Final residual = 4.08295e-07, No Iterations 4
diagonal:  Solving for rho, Initial residual = 0, Final residual = 0, No Iterations 0
time step continuity errors : sum local = 3.1305e-08, global = 2.54109e-09, cumulative = -1.40331e-07
DILUPBiCGStab:  Solving for omega, Initial residual = 0.000144499, Final residual = 1.39749e-09, No Iterations 2
DILUPBiCGStab:  Solving for k, Initial residual = 0.00823042, Final residual = 3.48826e-09, No Iterations 3

ExecutionTime = 4.38 s  ClockTime = 5 s

    Overall     = 0.00190329, 0.01
Time = 282

diagonal:  Solving for rho, Initial residual = 0, Final residual = 0, No Iterations 0

Execution time for mesh.update() = 0 s

DILUPBiCGStab:  Solving for Ux, Initial residual = 0.00728382, Final residual = 5.29426e-09, No Iterations 3
DILUPBiCGStab:  Solving for Uy, Initial residual = 0.00657602, Final residual = 4.50227e-09, No Iterations 3
DILUPBiCGStab:  Solving for O2, Initial residual = 0.00385806, Final residual = 1.45573e-09, No Iterations 3
DILUPBiCGStab:  Solving for H2O, Initial residual = 0.00385807, Final residual = 1.45575e-09, No Iterations 3
DILUPBiCGStab:  Solving for CH4, Initial residual = 0, Final residual = 0, No Iterations 0
DILUPBiCGStab:  Solving for CO2, Initial residual = 0.00385807, Final residual = 1.45574e-09, No Iterations 3
DILUPBiCGStab:  Solving for h, Initial residual = 0.00453353, Final residual = 1.08398e-09, No Iterations 3
min/max(T) = 300, 1044.99
GAMGPCG:  Solving for p_rgh, Initial residual = 0.0216537, Final residual = 9.03674e-07, No Iterations 4
diagonal:  Solving for rho, Initial residual = 0, Final residual = 0, No Iterations 0
time step continuity errors : sum local = 7.32346e-08, global = 1.0107e-08, cumulative = -1.30224e-07
GAMGPCG:  Solving for p_rgh, Initial residual = 0.00353937, Final residual = 4.04544e-07, No Iterations 4
diagonal:  Solving for rho, Initial residual = 0, Final residual = 0, No Iterations 0
time step continuity errors : sum local = 3.13318e-08, global = 2.31484e-09, cumulative = -1.27909e-07
DILUPBiCGStab:  Solving for omega, Initial residual = 0.000144647, Final residual = 1.4402e-09, No Iterations 2
DILUPBiCGStab:  Solving for k, Initial residual = 0.00822543, Final residual = 3.4607e-09, No Iterations 3

ExecutionTime = 4.49 s  ClockTime = 5 s

    Overall     = 0.00190151, 0.01
Time = 283

diagonal:  Solving for rho, Initial residual = 0, Final residual = 0, No Iterations 0

Execution time for mesh.update() = 0 s

DILUPBiCGStab:  Solving for Ux, Initial residual = 0.00720357, Final residual = 5.18136e-09, No Iterations 3
DILUPBiCGStab:  Solving for Uy, Initial residual = 0.00649046, Final residual = 4.472e-09, No Iterations 3
DILUPBiCGStab:  Solving for O2, Initial residual = 0.00381833, Final residual = 1.36734e-09, No Iterations 3
DILUPBiCGStab:  Solving for H2O, Initial residual = 0.00381834, Final residual = 1.36736e-09, No Iterations 3
DILUPBiCGStab:  Solving for CH4, Initial residual = 0, Final residual = 0, No Iterations 0
DILUPBiCGStab:  Solving for CO2, Initial residual = 0.00381834, Final residual = 1.36735e-09, No Iterations 3
DILUPBiCGStab:  Solving for h, Initial residual = 0.00449328, Final residual = 8.79646e-10, No Iterations 3
min/max(T) = 300, 1044.99
GAMGPCG:  Solving for p_rgh, Initial residual = 0.0223606, Final residual = 1.25671e-07, No Iterations 5
diagonal:  Solving for rho, Initial residual = 0, Final residual = 0, No Iterations 0
time step continuity errors : sum local = 1.01276e-08, global = 1.4806e-09, cumulative = -1.26429e-07
GAMGPCG:  Solving for p_rgh, Initial residual = 0.00346867, Final residual = 4.02854e-07, No Iterations 4
diagonal:  Solving for rho, Initial residual = 0, Final residual = 0, No Iterations 0
time step continuity errors : sum local = 3.15663e-08, global = 2.83715e-09, cumulative = -1.23591e-07
DILUPBiCGStab:  Solving for omega, Initial residual = 0.000142799, Final residual = 1.31772e-09, No Iterations 2
DILUPBiCGStab:  Solving for k, Initial residual = 0.00821674, Final residual = 3.70693e-09, No Iterations 3

ExecutionTime = 4.61 s  ClockTime = 5 s

    Overall     = 0.00190009, 0.01
Time = 284

diagonal:  Solving for rho, Initial residual = 0, Final residual = 0, No Iterations 0

Execution time for mesh.update() = 0 s

DILUPBiCGStab:  Solving for Ux, Initial residual = 0.00715857, Final residual = 5.0608e-09, No Iterations 3
DILUPBiCGStab:  Solving for Uy, Initial residual = 0.00645677, Final residual = 4.51413e-09, No Iterations 3
DILUPBiCGStab:  Solving for O2, Initial residual = 0.00378246, Final residual = 1.29059e-09, No Iterations 3
DILUPBiCGStab:  Solving for H2O, Initial residual = 0.00378247, Final residual = 1.29059e-09, No Iterations 3
DILUPBiCGStab:  Solving for CH4, Initial residual = 0, Final residual = 0, No Iterations 0
DILUPBiCGStab:  Solving for CO2, Initial residual = 0.00378247, Final residual = 1.29058e-09, No Iterations 3
DILUPBiCGStab:  Solving for h, Initial residual = 0.00445195, Final residual = 7.96528e-10, No Iterations 3
min/max(T) = 300, 1044.99
GAMGPCG:  Solving for p_rgh, Initial residual = 0.0215939, Final residual = 1.69032e-07, No Iterations 5
diagonal:  Solving for rho, Initial residual = 0, Final residual = 0, No Iterations 0
time step continuity errors : sum local = 1.35957e-08, global = 1.06712e-09, cumulative = -1.22524e-07
GAMGPCG:  Solving for p_rgh, Initial residual = 0.00352277, Final residual = 4.14049e-07, No Iterations 4
diagonal:  Solving for rho, Initial residual = 0, Final residual = 0, No Iterations 0
time step continuity errors : sum local = 3.23491e-08, global = 3.20447e-09, cumulative = -1.1932e-07
DILUPBiCGStab:  Solving for omega, Initial residual = 0.000143054, Final residual = 1.41011e-09, No Iterations 2
DILUPBiCGStab:  Solving for k, Initial residual = 0.00822723, Final residual = 3.55419e-09, No Iterations 3

ExecutionTime = 4.73 s  ClockTime = 5 s

    Overall     = 0.0018986, 0.01
Time = 285

diagonal:  Solving for rho, Initial residual = 0, Final residual = 0, No Iterations 0

Execution time for mesh.update() = 0 s

DILUPBiCGStab:  Solving for Ux, Initial residual = 0.00707388, Final residual = 4.79849e-09, No Iterations 3
DILUPBiCGStab:  Solving for Uy, Initial residual = 0.00639256, Final residual = 4.33021e-09, No Iterations 3
DILUPBiCGStab:  Solving for O2, Initial residual = 0.00374104, Final residual = 2.04927e-09, No Iterations 3
DILUPBiCGStab:  Solving for H2O, Initial residual = 0.00374105, Final residual = 2.04928e-09, No Iterations 3
DILUPBiCGStab:  Solving for CH4, Initial residual = 0, Final residual = 0, No Iterations 0
DILUPBiCGStab:  Solving for CO2, Initial residual = 0.00374105, Final residual = 2.04926e-09, No Iterations 3
DILUPBiCGStab:  Solving for h, Initial residual = 0.00440519, Final residual = 9.45369e-10, No Iterations 3
min/max(T) = 300, 1044.99
GAMGPCG:  Solving for p_rgh, Initial residual = 0.0215435, Final residual = 1.81346e-07, No Iterations 5
diagonal:  Solving for rho, Initial residual = 0, Final residual = 0, No Iterations 0
time step continuity errors : sum local = 1.44471e-08, global = -4.00931e-10, cumulative = -1.19721e-07
GAMGPCG:  Solving for p_rgh, Initial residual = 0.00354777, Final residual = 4.12957e-07, No Iterations 4
diagonal:  Solving for rho, Initial residual = 0, Final residual = 0, No Iterations 0
time step continuity errors : sum local = 3.23111e-08, global = 2.54188e-09, cumulative = -1.17179e-07
DILUPBiCGStab:  Solving for omega, Initial residual = 0.000142721, Final residual = 1.37586e-09, No Iterations 2
DILUPBiCGStab:  Solving for k, Initial residual = 0.0082256, Final residual = 3.13836e-09, No Iterations 3

ExecutionTime = 4.85 s  ClockTime = 5 s

    Overall     = 0.00189735, 0.01
Time = 286

diagonal:  Solving for rho, Initial residual = 0, Final residual = 0, No Iterations 0

Execution time for mesh.update() = 0 s

DILUPBiCGStab:  Solving for Ux, Initial residual = 0.00700789, Final residual = 4.80588e-09, No Iterations 3
DILUPBiCGStab:  Solving for Uy, Initial residual = 0.00631671, Final residual = 4.39378e-09, No Iterations 3
DILUPBiCGStab:  Solving for O2, Initial residual = 0.00371222, Final residual = 2.6968e-09, No Iterations 3
DILUPBiCGStab:  Solving for H2O, Initial residual = 0.00371223, Final residual = 2.69683e-09, No Iterations 3
DILUPBiCGStab:  Solving for CH4, Initial residual = 0, Final residual = 0, No Iterations 0
DILUPBiCGStab:  Solving for CO2, Initial residual = 0.00371223, Final residual = 2.69686e-09, No Iterations 3
DILUPBiCGStab:  Solving for h, Initial residual = 0.00437054, Final residual = 6.21591e-09, No Iterations 3
min/max(T) = 300, 1044.99
GAMGPCG:  Solving for p_rgh, Initial residual = 0.0220459, Final residual = 1.90142e-07, No Iterations 5
diagonal:  Solving for rho, Initial residual = 0, Final residual = 0, No Iterations 0
time step continuity errors : sum local = 1.50965e-08, global = -1.13744e-09, cumulative = -1.18316e-07
GAMGPCG:  Solving for p_rgh, Initial residual = 0.00341154, Final residual = 4.34971e-07, No Iterations 4
diagonal:  Solving for rho, Initial residual = 0, Final residual = 0, No Iterations 0
time step continuity errors : sum local = 3.38241e-08, global = 2.55833e-09, cumulative = -1.15758e-07
DILUPBiCGStab:  Solving for omega, Initial residual = 0.000140616, Final residual = 1.60299e-09, No Iterations 2
DILUPBiCGStab:  Solving for k, Initial residual = 0.00823617, Final residual = 2.83374e-09, No Iterations 3

ExecutionTime = 4.97 s  ClockTime = 5 s

    Overall     = 0.0018962, 0.01
Time = 287

diagonal:  Solving for rho, Initial residual = 0, Final residual = 0, No Iterations 0

Execution time for mesh.update() = 0 s

DILUPBiCGStab:  Solving for Ux, Initial residual = 0.00694928, Final residual = 4.75356e-09, No Iterations 3
DILUPBiCGStab:  Solving for Uy, Initial residual = 0.0062914, Final residual = 4.19662e-09, No Iterations 3
DILUPBiCGStab:  Solving for O2, Initial residual = 0.00366959, Final residual = 9.22781e-09, No Iterations 3
DILUPBiCGStab:  Solving for H2O, Initial residual = 0.0036696, Final residual = 9.2279e-09, No Iterations 3
DILUPBiCGStab:  Solving for CH4, Initial residual = 0, Final residual = 0, No Iterations 0
DILUPBiCGStab:  Solving for CO2, Initial residual = 0.0036696, Final residual = 9.22792e-09, No Iterations 3
DILUPBiCGStab:  Solving for h, Initial residual = 0.00432585, Final residual = 3.22505e-09, No Iterations 3
min/max(T) = 300, 1044.99
GAMGPCG:  Solving for p_rgh, Initial residual = 0.0218711, Final residual = 1.93245e-07, No Iterations 5
diagonal:  Solving for rho, Initial residual = 0, Final residual = 0, No Iterations 0
time step continuity errors : sum local = 1.57186e-08, global = -3.05233e-09, cumulative = -1.1881e-07
GAMGPCG:  Solving for p_rgh, Initial residual = 0.00364777, Final residual = 4.46892e-07, No Iterations 4
diagonal:  Solving for rho, Initial residual = 0, Final residual = 0, No Iterations 0
time step continuity errors : sum local = 3.49503e-08, global = 2.3647e-09, cumulative = -1.16446e-07
DILUPBiCGStab:  Solving for omega, Initial residual = 0.000142607, Final residual = 1.52207e-09, No Iterations 2
DILUPBiCGStab:  Solving for k, Initial residual = 0.00825214, Final residual = 2.63927e-09, No Iterations 3

ExecutionTime = 5.09 s  ClockTime = 6 s

    Overall     = 0.0018942, 0.01
Time = 288

diagonal:  Solving for rho, Initial residual = 0, Final residual = 0, No Iterations 0

Execution time for mesh.update() = 0 s

DILUPBiCGStab:  Solving for Ux, Initial residual = 0.00688684, Final residual = 4.83181e-09, No Iterations 3
DILUPBiCGStab:  Solving for Uy, Initial residual = 0.00622706, Final residual = 4.11058e-09, No Iterations 3
DILUPBiCGStab:  Solving for O2, Initial residual = 0.0036223, Final residual = 8.23119e-09, No Iterations 3
DILUPBiCGStab:  Solving for H2O, Initial residual = 0.00362231, Final residual = 8.23131e-09, No Iterations 3
DILUPBiCGStab:  Solving for CH4, Initial residual = 0, Final residual = 0, No Iterations 0
DILUPBiCGStab:  Solving for CO2, Initial residual = 0.00362231, Final residual = 8.23133e-09, No Iterations 3
DILUPBiCGStab:  Solving for h, Initial residual = 0.00427934, Final residual = 2.19435e-09, No Iterations 3
min/max(T) = 300, 1044.99
GAMGPCG:  Solving for p_rgh, Initial residual = 0.0215611, Final residual = 1.358e-07, No Iterations 5
diagonal:  Solving for rho, Initial residual = 0, Final residual = 0, No Iterations 0
time step continuity errors : sum local = 1.09369e-08, global = -1.24312e-09, cumulative = -1.17689e-07
GAMGPCG:  Solving for p_rgh, Initial residual = 0.00345899, Final residual = 4.11558e-07, No Iterations 4
diagonal:  Solving for rho, Initial residual = 0, Final residual = 0, No Iterations 0
time step continuity errors : sum local = 3.2505e-08, global = 1.5407e-09, cumulative = -1.16148e-07
DILUPBiCGStab:  Solving for omega, Initial residual = 0.000140438, Final residual = 1.71626e-09, No Iterations 2
DILUPBiCGStab:  Solving for k, Initial residual = 0.00827092, Final residual = 3.22077e-09, No Iterations 3

ExecutionTime = 5.21 s  ClockTime = 6 s

    Overall     = 0.00189039, 0.01
Time = 289

diagonal:  Solving for rho, Initial residual = 0, Final residual = 0, No Iterations 0

Execution time for mesh.update() = 0 s

DILUPBiCGStab:  Solving for Ux, Initial residual = 0.00681357, Final residual = 4.90108e-09, No Iterations 3
DILUPBiCGStab:  Solving for Uy, Initial residual = 0.00617404, Final residual = 3.78348e-09, No Iterations 3
DILUPBiCGStab:  Solving for O2, Initial residual = 0.00358296, Final residual = 5.00771e-09, No Iterations 3
DILUPBiCGStab:  Solving for H2O, Initial residual = 0.00358297, Final residual = 5.00775e-09, No Iterations 3
DILUPBiCGStab:  Solving for CH4, Initial residual = 0, Final residual = 0, No Iterations 0
DILUPBiCGStab:  Solving for CO2, Initial residual = 0.00358297, Final residual = 5.00775e-09, No Iterations 3
DILUPBiCGStab:  Solving for h, Initial residual = 0.00423343, Final residual = 6.5975e-09, No Iterations 3
min/max(T) = 300, 1044.99
GAMGPCG:  Solving for p_rgh, Initial residual = 0.0217456, Final residual = 1.46829e-07, No Iterations 5
diagonal:  Solving for rho, Initial residual = 0, Final residual = 0, No Iterations 0
time step continuity errors : sum local = 1.19686e-08, global = -1.56495e-09, cumulative = -1.17713e-07
GAMGPCG:  Solving for p_rgh, Initial residual = 0.00337632, Final residual = 4.16464e-07, No Iterations 4
diagonal:  Solving for rho, Initial residual = 0, Final residual = 0, No Iterations 0
time step continuity errors : sum local = 3.29551e-08, global = 1.07358e-09, cumulative = -1.16639e-07
DILUPBiCGStab:  Solving for omega, Initial residual = 0.000139387, Final residual = 1.68697e-09, No Iterations 2
DILUPBiCGStab:  Solving for k, Initial residual = 0.00826984, Final residual = 2.77977e-09, No Iterations 3

ExecutionTime = 5.33 s  ClockTime = 6 s

    Overall     = 0.00188679, 0.01
Time = 290

diagonal:  Solving for rho, Initial residual = 0, Final residual = 0, No Iterations 0

Execution time for mesh.update() = 0 s

DILUPBiCGStab:  Solving for Ux, Initial residual = 0.00674109, Final residual = 5.41675e-09, No Iterations 3
DILUPBiCGStab:  Solving for Uy, Initial residual = 0.00614946, Final residual = 3.67954e-09, No Iterations 3
GAMGPCG:  Solving for G, Initial residual = 0.16324, Final residual = 9.04765e-05, No Iterations 7
DILUPBiCGStab:  Solving for O2, Initial residual = 0.00354133, Final residual = 5.70903e-09, No Iterations 3
DILUPBiCGStab:  Solving for H2O, Initial residual = 0.00354134, Final residual = 5.70908e-09, No Iterations 3
DILUPBiCGStab:  Solving for CH4, Initial residual = 0, Final residual = 0, No Iterations 0
DILUPBiCGStab:  Solving for CO2, Initial residual = 0.00354134, Final residual = 5.70908e-09, No Iterations 3
DILUPBiCGStab:  Solving for h, Initial residual = 0.00418775, Final residual = 7.05324e-09, No Iterations 3
min/max(T) = 300, 1044.99
GAMGPCG:  Solving for p_rgh, Initial residual = 0.0212261, Final residual = 1.5834e-07, No Iterations 5
diagonal:  Solving for rho, Initial residual = 0, Final residual = 0, No Iterations 0
time step continuity errors : sum local = 1.2774e-08, global = -1.54717e-09, cumulative = -1.18187e-07
GAMGPCG:  Solving for p_rgh, Initial residual = 0.00355311, Final residual = 4.09126e-07, No Iterations 4
diagonal:  Solving for rho, Initial residual = 0, Final residual = 0, No Iterations 0
time step continuity errors : sum local = 3.22501e-08, global = 1.30505e-09, cumulative = -1.16882e-07
DILUPBiCGStab:  Solving for omega, Initial residual = 0.000138945, Final residual = 1.89886e-09, No Iterations 2
DILUPBiCGStab:  Solving for k, Initial residual = 0.00824902, Final residual = 7.25007e-10, No Iterations 3

ExecutionTime = 5.59 s  ClockTime = 6 s

    Overall     = 0.00188168, 0.01
Time = 291

diagonal:  Solving for rho, Initial residual = 0, Final residual = 0, No Iterations 0

Execution time for mesh.update() = 0 s

DILUPBiCGStab:  Solving for Ux, Initial residual = 0.00667082, Final residual = 6.06323e-09, No Iterations 3
DILUPBiCGStab:  Solving for Uy, Initial residual = 0.00608361, Final residual = 3.62691e-09, No Iterations 3
DILUPBiCGStab:  Solving for O2, Initial residual = 0.00349634, Final residual = 4.36359e-09, No Iterations 3
DILUPBiCGStab:  Solving for H2O, Initial residual = 0.00349634, Final residual = 4.36361e-09, No Iterations 3
DILUPBiCGStab:  Solving for CH4, Initial residual = 0, Final residual = 0, No Iterations 0
DILUPBiCGStab:  Solving for CO2, Initial residual = 0.00349634, Final residual = 4.36361e-09, No Iterations 3
DILUPBiCGStab:  Solving for h, Initial residual = 0.00413463, Final residual = 4.75306e-09, No Iterations 3
min/max(T) = 300, 1044.99
GAMGPCG:  Solving for p_rgh, Initial residual = 0.0210302, Final residual = 1.73297e-07, No Iterations 5
diagonal:  Solving for rho, Initial residual = 0, Final residual = 0, No Iterations 0
time step continuity errors : sum local = 1.37727e-08, global = -7.60071e-10, cumulative = -1.17642e-07
GAMGPCG:  Solving for p_rgh, Initial residual = 0.00337899, Final residual = 4.18787e-07, No Iterations 4
diagonal:  Solving for rho, Initial residual = 0, Final residual = 0, No Iterations 0
time step continuity errors : sum local = 3.30754e-08, global = 1.24751e-09, cumulative = -1.16394e-07
DILUPBiCGStab:  Solving for omega, Initial residual = 0.00013975, Final residual = 1.77341e-09, No Iterations 2
DILUPBiCGStab:  Solving for k, Initial residual = 0.00825791, Final residual = 7.97846e-09, No Iterations 3

ExecutionTime = 5.71 s  ClockTime = 6 s

    Overall     = 0.00187684, 0.01
Time = 292

diagonal:  Solving for rho, Initial residual = 0, Final residual = 0, No Iterations 0

Execution time for mesh.update() = 0 s

DILUPBiCGStab:  Solving for Ux, Initial residual = 0.0066113, Final residual = 7.69698e-09, No Iterations 3
DILUPBiCGStab:  Solving for Uy, Initial residual = 0.00605008, Final residual = 3.47346e-09, No Iterations 3
DILUPBiCGStab:  Solving for O2, Initial residual = 0.00346315, Final residual = 4.02321e-09, No Iterations 3
DILUPBiCGStab:  Solving for H2O, Initial residual = 0.00346316, Final residual = 4.02323e-09, No Iterations 3
DILUPBiCGStab:  Solving for CH4, Initial residual = 0, Final residual = 0, No Iterations 0
DILUPBiCGStab:  Solving for CO2, Initial residual = 0.00346316, Final residual = 4.02322e-09, No Iterations 3
DILUPBiCGStab:  Solving for h, Initial residual = 0.00410327, Final residual = 4.13237e-09, No Iterations 3
min/max(T) = 300, 1044.99
GAMGPCG:  Solving for p_rgh, Initial residual = 0.0214095, Final residual = 1.58829e-07, No Iterations 5
diagonal:  Solving for rho, Initial residual = 0, Final residual = 0, No Iterations 0
time step continuity errors : sum local = 1.26905e-08, global = -1.46519e-10, cumulative = -1.16541e-07
GAMGPCG:  Solving for p_rgh, Initial residual = 0.00341788, Final residual = 4.01316e-07, No Iterations 4
diagonal:  Solving for rho, Initial residual = 0, Final residual = 0, No Iterations 0
time step continuity errors : sum local = 3.16763e-08, global = 1.80332e-09, cumulative = -1.14737e-07
DILUPBiCGStab:  Solving for omega, Initial residual = 0.000139875, Final residual = 1.85738e-09, No Iterations 2
DILUPBiCGStab:  Solving for k, Initial residual = 0.00829674, Final residual = 6.43178e-10, No Iterations 3

ExecutionTime = 5.83 s  ClockTime = 6 s

    Overall     = 0.00186923, 0.01
Time = 293

diagonal:  Solving for rho, Initial residual = 0, Final residual = 0, No Iterations 0

Execution time for mesh.update() = 0 s

[...]

Execution time for mesh.update() = 0 s

DILUPBiCGStab:  Solving for Ux, Initial residual = 0.00381908, Final residual = 5.82932e-09, No Iterations 3
DILUPBiCGStab:  Solving for Uy, Initial residual = 0.0038483, Final residual = 5.49661e-09, No Iterations 3
GAMGPCG:  Solving for G, Initial residual = 0.142238, Final residual = 9.78121e-05, No Iterations 5
DILUPBiCGStab:  Solving for O2, Initial residual = 0.00185898, Final residual = 2.78813e-09, No Iterations 3
DILUPBiCGStab:  Solving for H2O, Initial residual = 0.00185898, Final residual = 2.7882e-09, No Iterations 3
DILUPBiCGStab:  Solving for CH4, Initial residual = 0, Final residual = 0, No Iterations 0
DILUPBiCGStab:  Solving for CO2, Initial residual = 0.00185898, Final residual = 2.7882e-09, No Iterations 3
DILUPBiCGStab:  Solving for h, Initial residual = 0.00199408, Final residual = 2.776e-09, No Iterations 3
min/max(T) = 299.978, 1044.99
GAMGPCG:  Solving for p_rgh, Initial residual = 0.014586, Final residual = 2.63747e-07, No Iterations 5
diagonal:  Solving for rho, Initial residual = 0, Final residual = 0, No Iterations 0
time step continuity errors : sum local = 8.82813e-09, global = -3.65454e-10, cumulative = 2.2602e-06
GAMGPCG:  Solving for p_rgh, Initial residual = 0.00241137, Final residual = 3.95893e-07, No Iterations 4
diagonal:  Solving for rho, Initial residual = 0, Final residual = 0, No Iterations 0
time step continuity errors : sum local = 1.31446e-08, global = 2.49815e-09, cumulative = 2.2627e-06
DILUPBiCGStab:  Solving for omega, Initial residual = 8.39081e-05, Final residual = 1.87793e-09, No Iterations 2
DILUPBiCGStab:  Solving for k, Initial residual = 0.00392068, Final residual = 3.74927e-09, No Iterations 3

ExecutionTime = 299.27 s  ClockTime = 300 s

    Overall     = 0.001339, 0.01
Time = 2491

diagonal:  Solving for rho, Initial residual = 0, Final residual = 0, No Iterations 0

Execution time for mesh.update() = 0 s

DILUPBiCGStab:  Solving for Ux, Initial residual = 0.00381157, Final residual = 5.63627e-09, No Iterations 3
DILUPBiCGStab:  Solving for Uy, Initial residual = 0.00385836, Final residual = 5.55836e-09, No Iterations 3
DILUPBiCGStab:  Solving for O2, Initial residual = 0.00184787, Final residual = 2.7097e-09, No Iterations 3
DILUPBiCGStab:  Solving for H2O, Initial residual = 0.00184789, Final residual = 2.7097e-09, No Iterations 3
DILUPBiCGStab:  Solving for CH4, Initial residual = 0, Final residual = 0, No Iterations 0
DILUPBiCGStab:  Solving for CO2, Initial residual = 0.00184789, Final residual = 2.7097e-09, No Iterations 3
DILUPBiCGStab:  Solving for h, Initial residual = 0.00198352, Final residual = 2.72132e-09, No Iterations 3
min/max(T) = 299.978, 1044.99
GAMGPCG:  Solving for p_rgh, Initial residual = 0.0145619, Final residual = 2.47587e-07, No Iterations 5
diagonal:  Solving for rho, Initial residual = 0, Final residual = 0, No Iterations 0
time step continuity errors : sum local = 8.28582e-09, global = 2.25452e-10, cumulative = 2.26293e-06
GAMGPCG:  Solving for p_rgh, Initial residual = 0.00243516, Final residual = 3.85877e-07, No Iterations 4
diagonal:  Solving for rho, Initial residual = 0, Final residual = 0, No Iterations 0
time step continuity errors : sum local = 1.28402e-08, global = 1.86821e-09, cumulative = 2.26479e-06
DILUPBiCGStab:  Solving for omega, Initial residual = 8.39803e-05, Final residual = 1.82349e-09, No Iterations 2
DILUPBiCGStab:  Solving for k, Initial residual = 0.00392807, Final residual = 3.52501e-09, No Iterations 3

ExecutionTime = 299.39 s  ClockTime = 300 s

    Overall     = 0.00134182, 0.01
Time = 2492

diagonal:  Solving for rho, Initial residual = 0, Final residual = 0, No Iterations 0

Execution time for mesh.update() = 0 s

DILUPBiCGStab:  Solving for Ux, Initial residual = 0.00381389, Final residual = 5.74967e-09, No Iterations 3
DILUPBiCGStab:  Solving for Uy, Initial residual = 0.00385685, Final residual = 5.67268e-09, No Iterations 3
DILUPBiCGStab:  Solving for O2, Initial residual = 0.00184786, Final residual = 2.95779e-09, No Iterations 3
DILUPBiCGStab:  Solving for H2O, Initial residual = 0.00184785, Final residual = 2.95781e-09, No Iterations 3
DILUPBiCGStab:  Solving for CH4, Initial residual = 0, Final residual = 0, No Iterations 0
DILUPBiCGStab:  Solving for CO2, Initial residual = 0.00184785, Final residual = 2.95781e-09, No Iterations 3
DILUPBiCGStab:  Solving for h, Initial residual = 0.00198096, Final residual = 2.95204e-09, No Iterations 3
min/max(T) = 300, 1044.99
GAMGPCG:  Solving for p_rgh, Initial residual = 0.0150074, Final residual = 2.73079e-07, No Iterations 5
diagonal:  Solving for rho, Initial residual = 0, Final residual = 0, No Iterations 0
time step continuity errors : sum local = 9.24942e-09, global = 1.65459e-10, cumulative = 2.26496e-06
GAMGPCG:  Solving for p_rgh, Initial residual = 0.00241514, Final residual = 3.71657e-07, No Iterations 4
diagonal:  Solving for rho, Initial residual = 0, Final residual = 0, No Iterations 0
time step continuity errors : sum local = 1.23569e-08, global = 1.73413e-09, cumulative = 2.26669e-06
DILUPBiCGStab:  Solving for omega, Initial residual = 8.42028e-05, Final residual = 1.77237e-09, No Iterations 2
DILUPBiCGStab:  Solving for k, Initial residual = 0.00393073, Final residual = 3.61279e-09, No Iterations 3

ExecutionTime = 299.51 s  ClockTime = 300 s

    Overall     = 0.00133647, 0.01
Time = 2493

diagonal:  Solving for rho, Initial residual = 0, Final residual = 0, No Iterations 0

Execution time for mesh.update() = 0 s

DILUPBiCGStab:  Solving for Ux, Initial residual = 0.00384486, Final residual = 5.60992e-09, No Iterations 3
DILUPBiCGStab:  Solving for Uy, Initial residual = 0.00389742, Final residual = 5.76284e-09, No Iterations 3
DILUPBiCGStab:  Solving for O2, Initial residual = 0.0018396, Final residual = 2.90426e-09, No Iterations 3
DILUPBiCGStab:  Solving for H2O, Initial residual = 0.00183961, Final residual = 2.90427e-09, No Iterations 3
DILUPBiCGStab:  Solving for CH4, Initial residual = 0, Final residual = 0, No Iterations 0
DILUPBiCGStab:  Solving for CO2, Initial residual = 0.00183961, Final residual = 2.90427e-09, No Iterations 3
DILUPBiCGStab:  Solving for h, Initial residual = 0.00197504, Final residual = 2.91512e-09, No Iterations 3
min/max(T) = 300, 1044.99
GAMGPCG:  Solving for p_rgh, Initial residual = 0.014973, Final residual = 2.89418e-07, No Iterations 5
diagonal:  Solving for rho, Initial residual = 0, Final residual = 0, No Iterations 0
time step continuity errors : sum local = 9.80534e-09, global = 6.2695e-10, cumulative = 2.26732e-06
GAMGPCG:  Solving for p_rgh, Initial residual = 0.00246304, Final residual = 3.68198e-07, No Iterations 4
diagonal:  Solving for rho, Initial residual = 0, Final residual = 0, No Iterations 0
time step continuity errors : sum local = 1.22636e-08, global = 9.53396e-10, cumulative = 2.26827e-06
DILUPBiCGStab:  Solving for omega, Initial residual = 8.39744e-05, Final residual = 1.725e-09, No Iterations 2
DILUPBiCGStab:  Solving for k, Initial residual = 0.00394257, Final residual = 3.64017e-09, No Iterations 3

ExecutionTime = 299.63 s  ClockTime = 300 s

    Overall     = 0.00133924, 0.01
Time = 2494

diagonal:  Solving for rho, Initial residual = 0, Final residual = 0, No Iterations 0

Execution time for mesh.update() = 0 s

DILUPBiCGStab:  Solving for Ux, Initial residual = 0.00383238, Final residual = 5.6698e-09, No Iterations 3
DILUPBiCGStab:  Solving for Uy, Initial residual = 0.00388336, Final residual = 5.90743e-09, No Iterations 3
DILUPBiCGStab:  Solving for O2, Initial residual = 0.00183642, Final residual = 3.09184e-09, No Iterations 3
DILUPBiCGStab:  Solving for H2O, Initial residual = 0.00183641, Final residual = 3.09183e-09, No Iterations 3
DILUPBiCGStab:  Solving for CH4, Initial residual = 0, Final residual = 0, No Iterations 0
DILUPBiCGStab:  Solving for CO2, Initial residual = 0.00183641, Final residual = 3.09183e-09, No Iterations 3
DILUPBiCGStab:  Solving for h, Initial residual = 0.00197498, Final residual = 3.11881e-09, No Iterations 3
min/max(T) = 300, 1044.99
GAMGPCG:  Solving for p_rgh, Initial residual = 0.0148451, Final residual = 2.93543e-07, No Iterations 5
diagonal:  Solving for rho, Initial residual = 0, Final residual = 0, No Iterations 0
time step continuity errors : sum local = 1.00209e-08, global = 5.14188e-10, cumulative = 2.26879e-06
GAMGPCG:  Solving for p_rgh, Initial residual = 0.00244531, Final residual = 3.47387e-07, No Iterations 4
diagonal:  Solving for rho, Initial residual = 0, Final residual = 0, No Iterations 0
time step continuity errors : sum local = 1.15729e-08, global = 8.87297e-10, cumulative = 2.26967e-06
DILUPBiCGStab:  Solving for omega, Initial residual = 8.35229e-05, Final residual = 1.75176e-09, No Iterations 2
DILUPBiCGStab:  Solving for k, Initial residual = 0.00393668, Final residual = 3.65757e-09, No Iterations 3

ExecutionTime = 299.75 s  ClockTime = 300 s

    Overall     = 0.0013339, 0.01
Time = 2495

diagonal:  Solving for rho, Initial residual = 0, Final residual = 0, No Iterations 0

Execution time for mesh.update() = 0 s

DILUPBiCGStab:  Solving for Ux, Initial residual = 0.00382936, Final residual = 5.7158e-09, No Iterations 3
DILUPBiCGStab:  Solving for Uy, Initial residual = 0.0038855, Final residual = 5.93641e-09, No Iterations 3
DILUPBiCGStab:  Solving for O2, Initial residual = 0.0018303, Final residual = 3.10479e-09, No Iterations 3
DILUPBiCGStab:  Solving for H2O, Initial residual = 0.0018303, Final residual = 3.10481e-09, No Iterations 3
DILUPBiCGStab:  Solving for CH4, Initial residual = 0, Final residual = 0, No Iterations 0
DILUPBiCGStab:  Solving for CO2, Initial residual = 0.0018303, Final residual = 3.10481e-09, No Iterations 3
DILUPBiCGStab:  Solving for h, Initial residual = 0.00196637, Final residual = 3.15636e-09, No Iterations 3
min/max(T) = 300, 1044.99
GAMGPCG:  Solving for p_rgh, Initial residual = 0.0147834, Final residual = 2.99999e-07, No Iterations 5
diagonal:  Solving for rho, Initial residual = 0, Final residual = 0, No Iterations 0
time step continuity errors : sum local = 1.02252e-08, global = 8.286e-10, cumulative = 2.2705e-06
GAMGPCG:  Solving for p_rgh, Initial residual = 0.00247934, Final residual = 3.40868e-07, No Iterations 4
diagonal:  Solving for rho, Initial residual = 0, Final residual = 0, No Iterations 0
time step continuity errors : sum local = 1.13553e-08, global = 5.26481e-10, cumulative = 2.27103e-06
DILUPBiCGStab:  Solving for omega, Initial residual = 8.32864e-05, Final residual = 1.8146e-09, No Iterations 2
DILUPBiCGStab:  Solving for k, Initial residual = 0.00393343, Final residual = 3.69046e-09, No Iterations 3

ExecutionTime = 299.87 s  ClockTime = 300 s

    Overall     = 0.00133627, 0.01
Time = 2496

diagonal:  Solving for rho, Initial residual = 0, Final residual = 0, No Iterations 0

Execution time for mesh.update() = 0 s

DILUPBiCGStab:  Solving for Ux, Initial residual = 0.00382594, Final residual = 5.85484e-09, No Iterations 3
DILUPBiCGStab:  Solving for Uy, Initial residual = 0.00387505, Final residual = 5.85826e-09, No Iterations 3
DILUPBiCGStab:  Solving for O2, Initial residual = 0.00182611, Final residual = 3.10689e-09, No Iterations 3
DILUPBiCGStab:  Solving for H2O, Initial residual = 0.00182611, Final residual = 3.10688e-09, No Iterations 3
DILUPBiCGStab:  Solving for CH4, Initial residual = 0, Final residual = 0, No Iterations 0
DILUPBiCGStab:  Solving for CO2, Initial residual = 0.00182611, Final residual = 3.10688e-09, No Iterations 3
DILUPBiCGStab:  Solving for h, Initial residual = 0.00196291, Final residual = 3.16005e-09, No Iterations 3
min/max(T) = 300, 1044.99
GAMGPCG:  Solving for p_rgh, Initial residual = 0.014922, Final residual = 2.92362e-07, No Iterations 5
diagonal:  Solving for rho, Initial residual = 0, Final residual = 0, No Iterations 0
time step continuity errors : sum local = 1.00601e-08, global = 8.57299e-10, cumulative = 2.27189e-06
GAMGPCG:  Solving for p_rgh, Initial residual = 0.00248013, Final residual = 3.48113e-07, No Iterations 4
diagonal:  Solving for rho, Initial residual = 0, Final residual = 0, No Iterations 0
time step continuity errors : sum local = 1.15465e-08, global = 5.7652e-10, cumulative = 2.27246e-06
DILUPBiCGStab:  Solving for omega, Initial residual = 8.26848e-05, Final residual = 1.87216e-09, No Iterations 2
DILUPBiCGStab:  Solving for k, Initial residual = 0.00391633, Final residual = 3.63359e-09, No Iterations 3

ExecutionTime = 299.99 s  ClockTime = 300 s

    Overall     = 0.00133063, 0.01
Time = 2497

diagonal:  Solving for rho, Initial residual = 0, Final residual = 0, No Iterations 0

Execution time for mesh.update() = 0 s

DILUPBiCGStab:  Solving for Ux, Initial residual = 0.00381792, Final residual = 6.05389e-09, No Iterations 3
DILUPBiCGStab:  Solving for Uy, Initial residual = 0.00387605, Final residual = 5.73393e-09, No Iterations 3
DILUPBiCGStab:  Solving for O2, Initial residual = 0.00182451, Final residual = 3.23291e-09, No Iterations 3
DILUPBiCGStab:  Solving for H2O, Initial residual = 0.00182451, Final residual = 3.23292e-09, No Iterations 3
DILUPBiCGStab:  Solving for CH4, Initial residual = 0, Final residual = 0, No Iterations 0
DILUPBiCGStab:  Solving for CO2, Initial residual = 0.00182451, Final residual = 3.23292e-09, No Iterations 3
DILUPBiCGStab:  Solving for h, Initial residual = 0.00196026, Final residual = 3.2694e-09, No Iterations 3
min/max(T) = 300, 1044.99
GAMGPCG:  Solving for p_rgh, Initial residual = 0.0150213, Final residual = 2.87805e-07, No Iterations 5
diagonal:  Solving for rho, Initial residual = 0, Final residual = 0, No Iterations 0
time step continuity errors : sum local = 9.96931e-09, global = 1.07358e-09, cumulative = 2.27354e-06
GAMGPCG:  Solving for p_rgh, Initial residual = 0.00251278, Final residual = 3.61256e-07, No Iterations 4
diagonal:  Solving for rho, Initial residual = 0, Final residual = 0, No Iterations 0
time step continuity errors : sum local = 1.1954e-08, global = 5.0403e-11, cumulative = 2.27359e-06
DILUPBiCGStab:  Solving for omega, Initial residual = 8.22151e-05, Final residual = 1.95015e-09, No Iterations 2
DILUPBiCGStab:  Solving for k, Initial residual = 0.00390577, Final residual = 3.57927e-09, No Iterations 3

ExecutionTime = 300.1 s  ClockTime = 301 s

    Overall     = 0.00133231, 0.01
Time = 2498

diagonal:  Solving for rho, Initial residual = 0, Final residual = 0, No Iterations 0

Execution time for mesh.update() = 0 s

DILUPBiCGStab:  Solving for Ux, Initial residual = 0.00380824, Final residual = 6.20326e-09, No Iterations 3
DILUPBiCGStab:  Solving for Uy, Initial residual = 0.00386873, Final residual = 5.61081e-09, No Iterations 3
DILUPBiCGStab:  Solving for O2, Initial residual = 0.00182372, Final residual = 3.11343e-09, No Iterations 3
DILUPBiCGStab:  Solving for H2O, Initial residual = 0.00182372, Final residual = 3.11342e-09, No Iterations 3
DILUPBiCGStab:  Solving for CH4, Initial residual = 0, Final residual = 0, No Iterations 0
DILUPBiCGStab:  Solving for CO2, Initial residual = 0.00182372, Final residual = 3.11342e-09, No Iterations 3
DILUPBiCGStab:  Solving for h, Initial residual = 0.00196315, Final residual = 3.21833e-09, No Iterations 3
min/max(T) = 300, 1044.99
GAMGPCG:  Solving for p_rgh, Initial residual = 0.0151873, Final residual = 2.56913e-07, No Iterations 5
diagonal:  Solving for rho, Initial residual = 0, Final residual = 0, No Iterations 0
time step continuity errors : sum local = 8.90104e-09, global = 1.11392e-09, cumulative = 2.2747e-06
GAMGPCG:  Solving for p_rgh, Initial residual = 0.00249518, Final residual = 4.27509e-07, No Iterations 4
diagonal:  Solving for rho, Initial residual = 0, Final residual = 0, No Iterations 0
time step continuity errors : sum local = 1.41335e-08, global = 2.49094e-10, cumulative = 2.27495e-06
DILUPBiCGStab:  Solving for omega, Initial residual = 8.1563e-05, Final residual = 1.98669e-09, No Iterations 2
DILUPBiCGStab:  Solving for k, Initial residual = 0.00389557, Final residual = 3.75201e-09, No Iterations 3

ExecutionTime = 300.22 s  ClockTime = 301 s

    Overall     = 0.00132618, 0.01
Time = 2499

diagonal:  Solving for rho, Initial residual = 0, Final residual = 0, No Iterations 0

Execution time for mesh.update() = 0 s

DILUPBiCGStab:  Solving for Ux, Initial residual = 0.0038187, Final residual = 6.22978e-09, No Iterations 3
DILUPBiCGStab:  Solving for Uy, Initial residual = 0.00387876, Final residual = 5.50715e-09, No Iterations 3
DILUPBiCGStab:  Solving for O2, Initial residual = 0.00182477, Final residual = 3.0605e-09, No Iterations 3
DILUPBiCGStab:  Solving for H2O, Initial residual = 0.00182477, Final residual = 3.0605e-09, No Iterations 3
DILUPBiCGStab:  Solving for CH4, Initial residual = 0, Final residual = 0, No Iterations 0
DILUPBiCGStab:  Solving for CO2, Initial residual = 0.00182477, Final residual = 3.0605e-09, No Iterations 3
DILUPBiCGStab:  Solving for h, Initial residual = 0.00196535, Final residual = 3.15482e-09, No Iterations 3
min/max(T) = 300, 1044.99
GAMGPCG:  Solving for p_rgh, Initial residual = 0.0157399, Final residual = 2.68993e-07, No Iterations 5
diagonal:  Solving for rho, Initial residual = 0, Final residual = 0, No Iterations 0
time step continuity errors : sum local = 9.4762e-09, global = 9.14964e-10, cumulative = 2.27587e-06
GAMGPCG:  Solving for p_rgh, Initial residual = 0.00256181, Final residual = 4.10693e-07, No Iterations 4
diagonal:  Solving for rho, Initial residual = 0, Final residual = 0, No Iterations 0
time step continuity errors : sum local = 1.36631e-08, global = 6.80211e-12, cumulative = 2.27587e-06
DILUPBiCGStab:  Solving for omega, Initial residual = 8.1938e-05, Final residual = 2.02299e-09, No Iterations 2
DILUPBiCGStab:  Solving for k, Initial residual = 0.00390804, Final residual = 4.02742e-09, No Iterations 3

ExecutionTime = 300.34 s  ClockTime = 301 s

    Overall     = 0.0013274, 0.01
Time = 2500

diagonal:  Solving for rho, Initial residual = 0, Final residual = 0, No Iterations 0

Execution time for mesh.update() = 0 s

DILUPBiCGStab:  Solving for Ux, Initial residual = 0.00385509, Final residual = 6.37979e-09, No Iterations 3
DILUPBiCGStab:  Solving for Uy, Initial residual = 0.00391236, Final residual = 5.59233e-09, No Iterations 3
GAMGPCG:  Solving for G, Initial residual = 0.141301, Final residual = 6.70448e-05, No Iterations 5
DILUPBiCGStab:  Solving for O2, Initial residual = 0.00182586, Final residual = 3.04633e-09, No Iterations 3
DILUPBiCGStab:  Solving for H2O, Initial residual = 0.00182586, Final residual = 3.04633e-09, No Iterations 3
DILUPBiCGStab:  Solving for CH4, Initial residual = 0, Final residual = 0, No Iterations 0
DILUPBiCGStab:  Solving for CO2, Initial residual = 0.00182586, Final residual = 3.04633e-09, No Iterations 3
DILUPBiCGStab:  Solving for h, Initial residual = 0.00196748, Final residual = 3.18586e-09, No Iterations 3
min/max(T) = 300, 1044.99
GAMGPCG:  Solving for p_rgh, Initial residual = 0.015897, Final residual = 2.41968e-07, No Iterations 5
diagonal:  Solving for rho, Initial residual = 0, Final residual = 0, No Iterations 0
time step continuity errors : sum local = 8.59065e-09, global = 9.80187e-10, cumulative = 2.27685e-06
GAMGPCG:  Solving for p_rgh, Initial residual = 0.00257451, Final residual = 5.07414e-07, No Iterations 4
diagonal:  Solving for rho, Initial residual = 0, Final residual = 0, No Iterations 0
time step continuity errors : sum local = 1.69148e-08, global = 9.61306e-10, cumulative = 2.27781e-06
DILUPBiCGStab:  Solving for omega, Initial residual = 8.13826e-05, Final residual = 1.9846e-09, No Iterations 2
DILUPBiCGStab:  Solving for k, Initial residual = 0.00389072, Final residual = 4.3201e-09, No Iterations 3

ExecutionTime = 300.6 s  ClockTime = 301 s


Patch Mean : 301.729
Patch Variance : 0.00125298
Patch Gradient : 0.121279
End
