/*---------------------------------------------------------------------------*\
  =========                 |
  \\      /  F ield         | OpenFOAM: The Open Source CFD Toolbox
   \\    /   O peration     | Website:  https://openfoam.org
    \\  /    A nd           | Version:  dev
     \\/     M anipulation  |
\*---------------------------------------------------------------------------*/
Build  : dev-cabe48fb62c1
Exec   : fireDyMFoam
Date   : Apr 15 2019
Time   : 13:28:50
Host   : "Host"
PID    : 4932
I/O    : uncollated
Case   : /home/tesla/OpenFOAM/tesla-dev/run/rollerOpt_COBYLA_NEW
nProcs : 1
sigFpe : Enabling floating point exception trapping (FOAM_SIGFPE).
fileModificationChecking : Monitoring run-time modified files using timeStampMaster (fileModificationSkew 10)
allowSystemOperations : Allowing user-supplied system call operations

// * * * * * * * * * * * * * * * * * * * * * * * * * * * * * * * * * * * * * //
Create time

--> FOAM Warning : 
    From function void* Foam::dlOpen(const Foam::fileName&, bool)
    in file POSIX.C at line 1268
    dlopen error : libgroovyBC.so: cannot open shared object file: No such file or directory
--> FOAM Warning : 
    From function bool Foam::dlLibraryTable::open(const Foam::fileName&, bool)
    in file db/dynamicLibrary/dlLibraryTable/dlLibraryTable.C at line 105
    could not load "libgroovyBC.so"
Create mesh for time = 250

Selecting dynamicFvMesh dynamicRefineFvMesh
Detected 538 cells that are protected from refinement. Writing these to cellSet protectedCells.

PIMPLE: No convergence criteria found


PIMPLE: Operating solver in PISO mode


Initializing Solver

Selecting thermodynamics package 
{
    type            hePsiThermo;
    mixture         reactingMixture;
    transport       sutherland;
    thermo          janaf;
    energy          sensibleEnthalpy;
    equationOfState perfectGas;
    specie          specie;
}

Selecting chemistryReader foamChemistryReader
    elements not defined in "/home/tesla/OpenFOAM/tesla-dev/run/rollerOpt_COBYLA_NEW/constant/reactions"
Reading/calculating face flux field phi

No MRF models present

Selecting turbulence model type RAS
Selecting RAS turbulence model kOmegaSST
Selecting patchDistMethod meshWave
kOmegaSSTCoeffs
{
    delta           cubeRootVol;
    cubeRootVolCoeffs
    {
        deltaCoeff      1;
    }
    alphaK1         0.85;
    alphaK2         1;
    alphaOmega1     0.5;
    alphaOmega2     0.856;
    gamma1          0.555556;
    gamma2          0.44;
    beta1           0.075;
    beta2           0.0828;
    betaStar        0.09;
    a1              0.31;
    b1              1;
    c1              10;
    F3              false;
}

Selecting combustion model none<psiThermoCombustion>
--> FOAM Warning : 
    From function static Foam::autoPtr<T> Foam::combustionModel::New(typename CombustionModel::reactionThermo&, const Foam::compressibleTurbulenceModel&, const Foam::word&) [with CombustionModel = Foam::CombustionModel<Foam::psiReactionThermo>; typename CombustionModel::reactionThermo = Foam::psiReactionThermo]
    in file /home/tesla/OpenFOAM/OpenFOAM-dev/src/combustionModels/lnInclude/combustionModelTemplates.C at line 69
    Template parameters are no longer required when selecting a combustionModel. This information is now obtained directly from the thermodynamics. Actually selecting combustion model none.

Reading g

Reading hRef
Calculating field g.h


Reading pRef
Selecting radiationModel P1
Selecting absorptionEmissionModel greyMeanAbsorptionEmission
Selecting scatterModel none
Selecting sootModel none
Creating finite volume options from "system/fvOptions"

No finite volume options present
Using LTS

Starting time loop

Using dynamicCode for functionObject patchCalcs at line 64 in "/home/tesla/OpenFOAM/tesla-dev/run/rollerOpt_COBYLA_NEW/system/controlDict.functions.patchCalcs"
    Overall     = 0.00129987, 0.01
Time = 251

diagonal:  Solving for rho, Initial residual = 0, Final residual = 0, No Iterations 0

Execution time for mesh.update() = 0 s

DILUPBiCGStab:  Solving for Ux, Initial residual = 0.00429226, Final residual = 7.83549e-09, No Iterations 3
DILUPBiCGStab:  Solving for Uy, Initial residual = 0.00911975, Final residual = 1.85874e-09, No Iterations 3
GAMGPCG:  Solving for G, Initial residual = 0.0224301, Final residual = 4.4608e-05, No Iterations 4
DILUPBiCGStab:  Solving for O2, Initial residual = 0.00256995, Final residual = 3.10448e-09, No Iterations 3
DILUPBiCGStab:  Solving for H2O, Initial residual = 0.00257038, Final residual = 3.10379e-09, No Iterations 3
DILUPBiCGStab:  Solving for CH4, Initial residual = 0, Final residual = 0, No Iterations 0
DILUPBiCGStab:  Solving for CO2, Initial residual = 0.00257039, Final residual = 3.1038e-09, No Iterations 3
DILUPBiCGStab:  Solving for h, Initial residual = 0.00282012, Final residual = 2.72557e-09, No Iterations 3
min/max(T) = 299.565, 1044.98
GAMGPCG:  Solving for p_rgh, Initial residual = 0.0206678, Final residual = 3.12658e-07, No Iterations 5
diagonal:  Solving for rho, Initial residual = 0, Final residual = 0, No Iterations 0
time step continuity errors : sum local = 2.4609e-06, global = -1.39268e-07, cumulative = -1.39268e-07
GAMGPCG:  Solving for p_rgh, Initial residual = 0.00325133, Final residual = 4.60835e-07, No Iterations 4
diagonal:  Solving for rho, Initial residual = 0, Final residual = 0, No Iterations 0
time step continuity errors : sum local = 2.46026e-06, global = -1.35979e-07, cumulative = -2.75247e-07
DILUPBiCGStab:  Solving for omega, Initial residual = 0.00010395, Final residual = 1.7461e-09, No Iterations 2
DILUPBiCGStab:  Solving for k, Initial residual = 0.00352667, Final residual = 3.42432e-09, No Iterations 3

ExecutionTime = 0.38 s  ClockTime = 0 s

    Overall     = 0.00130197, 0.01
Time = 252

diagonal:  Solving for rho, Initial residual = 0, Final residual = 0, No Iterations 0

Execution time for mesh.update() = 0 s

DILUPBiCGStab:  Solving for Ux, Initial residual = 0.00427696, Final residual = 7.73089e-09, No Iterations 3
DILUPBiCGStab:  Solving for Uy, Initial residual = 0.00903856, Final residual = 1.7675e-09, No Iterations 3
DILUPBiCGStab:  Solving for O2, Initial residual = 0.0025495, Final residual = 2.67908e-09, No Iterations 3
DILUPBiCGStab:  Solving for H2O, Initial residual = 0.00254952, Final residual = 2.67928e-09, No Iterations 3
DILUPBiCGStab:  Solving for CH4, Initial residual = 0, Final residual = 0, No Iterations 0
DILUPBiCGStab:  Solving for CO2, Initial residual = 0.00254952, Final residual = 2.67928e-09, No Iterations 3
DILUPBiCGStab:  Solving for h, Initial residual = 0.00279712, Final residual = 2.34541e-09, No Iterations 3
min/max(T) = 299.603, 1044.98
GAMGPCG:  Solving for p_rgh, Initial residual = 0.0200037, Final residual = 2.62002e-07, No Iterations 5
diagonal:  Solving for rho, Initial residual = 0, Final residual = 0, No Iterations 0
time step continuity errors : sum local = 1.10621e-08, global = -4.25354e-10, cumulative = -2.75673e-07
GAMGPCG:  Solving for p_rgh, Initial residual = 0.00305956, Final residual = 4.45296e-07, No Iterations 4
diagonal:  Solving for rho, Initial residual = 0, Final residual = 0, No Iterations 0
time step continuity errors : sum local = 1.81344e-08, global = 2.84508e-09, cumulative = -2.72828e-07
DILUPBiCGStab:  Solving for omega, Initial residual = 0.000102775, Final residual = 1.69985e-09, No Iterations 2
DILUPBiCGStab:  Solving for k, Initial residual = 0.0035159, Final residual = 3.48345e-09, No Iterations 3

ExecutionTime = 0.51 s  ClockTime = 0 s

    Overall     = 0.00129677, 0.01
Time = 253

diagonal:  Solving for rho, Initial residual = 0, Final residual = 0, No Iterations 0

Execution time for mesh.update() = 0 s

DILUPBiCGStab:  Solving for Ux, Initial residual = 0.00424907, Final residual = 8.26418e-09, No Iterations 3
DILUPBiCGStab:  Solving for Uy, Initial residual = 0.00893935, Final residual = 1.77203e-09, No Iterations 3
DILUPBiCGStab:  Solving for O2, Initial residual = 0.00252976, Final residual = 2.98234e-09, No Iterations 3
DILUPBiCGStab:  Solving for H2O, Initial residual = 0.00253017, Final residual = 2.98227e-09, No Iterations 3
DILUPBiCGStab:  Solving for CH4, Initial residual = 0, Final residual = 0, No Iterations 0
DILUPBiCGStab:  Solving for CO2, Initial residual = 0.00253017, Final residual = 2.98227e-09, No Iterations 3
DILUPBiCGStab:  Solving for h, Initial residual = 0.00277632, Final residual = 2.57733e-09, No Iterations 3
min/max(T) = 299.592, 1044.98
GAMGPCG:  Solving for p_rgh, Initial residual = 0.0202207, Final residual = 2.67223e-07, No Iterations 5
diagonal:  Solving for rho, Initial residual = 0, Final residual = 0, No Iterations 0
time step continuity errors : sum local = 1.11795e-08, global = -4.14505e-10, cumulative = -2.73242e-07
GAMGPCG:  Solving for p_rgh, Initial residual = 0.00304027, Final residual = 4.39332e-07, No Iterations 4
diagonal:  Solving for rho, Initial residual = 0, Final residual = 0, No Iterations 0
time step continuity errors : sum local = 1.78558e-08, global = 2.57384e-09, cumulative = -2.70668e-07
DILUPBiCGStab:  Solving for omega, Initial residual = 0.000102331, Final residual = 1.72251e-09, No Iterations 2
DILUPBiCGStab:  Solving for k, Initial residual = 0.00349805, Final residual = 3.86196e-09, No Iterations 3

ExecutionTime = 0.63 s  ClockTime = 0 s

    Overall     = 0.00129852, 0.01
Time = 254

diagonal:  Solving for rho, Initial residual = 0, Final residual = 0, No Iterations 0

Execution time for mesh.update() = 0 s

DILUPBiCGStab:  Solving for Ux, Initial residual = 0.00423528, Final residual = 9.37509e-09, No Iterations 3
DILUPBiCGStab:  Solving for Uy, Initial residual = 0.00888389, Final residual = 1.67092e-09, No Iterations 3
DILUPBiCGStab:  Solving for O2, Initial residual = 0.00251019, Final residual = 2.91581e-09, No Iterations 3
DILUPBiCGStab:  Solving for H2O, Initial residual = 0.0025102, Final residual = 2.91558e-09, No Iterations 3
DILUPBiCGStab:  Solving for CH4, Initial residual = 0, Final residual = 0, No Iterations 0
DILUPBiCGStab:  Solving for CO2, Initial residual = 0.0025102, Final residual = 2.91558e-09, No Iterations 3
DILUPBiCGStab:  Solving for h, Initial residual = 0.00275293, Final residual = 2.56254e-09, No Iterations 3
min/max(T) = 299.629, 1044.98
GAMGPCG:  Solving for p_rgh, Initial residual = 0.0196744, Final residual = 2.29784e-07, No Iterations 5
diagonal:  Solving for rho, Initial residual = 0, Final residual = 0, No Iterations 0
time step continuity errors : sum local = 9.77256e-09, global = -6.44342e-10, cumulative = -2.71313e-07
GAMGPCG:  Solving for p_rgh, Initial residual = 0.00298508, Final residual = 4.14089e-07, No Iterations 4
diagonal:  Solving for rho, Initial residual = 0, Final residual = 0, No Iterations 0
time step continuity errors : sum local = 1.68597e-08, global = 2.34187e-09, cumulative = -2.68971e-07
DILUPBiCGStab:  Solving for omega, Initial residual = 0.000101038, Final residual = 1.62445e-09, No Iterations 2
DILUPBiCGStab:  Solving for k, Initial residual = 0.00348838, Final residual = 3.8337e-09, No Iterations 3

ExecutionTime = 0.75 s  ClockTime = 0 s

    Overall     = 0.00129377, 0.01
Time = 255

diagonal:  Solving for rho, Initial residual = 0, Final residual = 0, No Iterations 0

Execution time for mesh.update() = 0 s

DILUPBiCGStab:  Solving for Ux, Initial residual = 0.00420621, Final residual = 7.43599e-09, No Iterations 3
DILUPBiCGStab:  Solving for Uy, Initial residual = 0.00879609, Final residual = 1.62648e-09, No Iterations 3
DILUPBiCGStab:  Solving for O2, Initial residual = 0.00249035, Final residual = 2.74075e-09, No Iterations 3
DILUPBiCGStab:  Solving for H2O, Initial residual = 0.00249073, Final residual = 2.74058e-09, No Iterations 3
DILUPBiCGStab:  Solving for CH4, Initial residual = 0, Final residual = 0, No Iterations 0
DILUPBiCGStab:  Solving for CO2, Initial residual = 0.00249073, Final residual = 2.74058e-09, No Iterations 3
DILUPBiCGStab:  Solving for h, Initial residual = 0.00273242, Final residual = 2.6117e-09, No Iterations 3
min/max(T) = 299.617, 1044.98
GAMGPCG:  Solving for p_rgh, Initial residual = 0.0195831, Final residual = 2.12171e-07, No Iterations 5
diagonal:  Solving for rho, Initial residual = 0, Final residual = 0, No Iterations 0
time step continuity errors : sum local = 9.02283e-09, global = -6.17082e-10, cumulative = -2.69588e-07
GAMGPCG:  Solving for p_rgh, Initial residual = 0.00298847, Final residual = 3.95305e-07, No Iterations 4
diagonal:  Solving for rho, Initial residual = 0, Final residual = 0, No Iterations 0
time step continuity errors : sum local = 1.6041e-08, global = 2.10391e-09, cumulative = -2.67484e-07
DILUPBiCGStab:  Solving for omega, Initial residual = 0.00010004, Final residual = 1.76977e-09, No Iterations 2
DILUPBiCGStab:  Solving for k, Initial residual = 0.00347213, Final residual = 3.67117e-09, No Iterations 3

ExecutionTime = 0.87 s  ClockTime = 0 s

    Overall     = 0.00129549, 0.01
Time = 256

diagonal:  Solving for rho, Initial residual = 0, Final residual = 0, No Iterations 0

Execution time for mesh.update() = 0 s

DILUPBiCGStab:  Solving for Ux, Initial residual = 0.00418982, Final residual = 6.57855e-09, No Iterations 3
DILUPBiCGStab:  Solving for Uy, Initial residual = 0.00873969, Final residual = 1.53261e-09, No Iterations 3
DILUPBiCGStab:  Solving for O2, Initial residual = 0.00247336, Final residual = 2.68474e-09, No Iterations 3
DILUPBiCGStab:  Solving for H2O, Initial residual = 0.00247335, Final residual = 2.68489e-09, No Iterations 3
DILUPBiCGStab:  Solving for CH4, Initial residual = 0, Final residual = 0, No Iterations 0
DILUPBiCGStab:  Solving for CO2, Initial residual = 0.00247335, Final residual = 2.68489e-09, No Iterations 3
DILUPBiCGStab:  Solving for h, Initial residual = 0.00271358, Final residual = 2.49076e-09, No Iterations 3
min/max(T) = 299.654, 1044.98
GAMGPCG:  Solving for p_rgh, Initial residual = 0.0190522, Final residual = 2.21523e-07, No Iterations 5
diagonal:  Solving for rho, Initial residual = 0, Final residual = 0, No Iterations 0
time step continuity errors : sum local = 9.44807e-09, global = -6.57034e-10, cumulative = -2.68141e-07
GAMGPCG:  Solving for p_rgh, Initial residual = 0.00288915, Final residual = 3.87749e-07, No Iterations 4
diagonal:  Solving for rho, Initial residual = 0, Final residual = 0, No Iterations 0
time step continuity errors : sum local = 1.58317e-08, global = 1.91504e-09, cumulative = -2.66226e-07
DILUPBiCGStab:  Solving for omega, Initial residual = 9.84834e-05, Final residual = 1.88212e-09, No Iterations 2
DILUPBiCGStab:  Solving for k, Initial residual = 0.00346649, Final residual = 3.59074e-09, No Iterations 3

ExecutionTime = 0.99 s  ClockTime = 1 s

    Overall     = 0.00129111, 0.01
Time = 257

diagonal:  Solving for rho, Initial residual = 0, Final residual = 0, No Iterations 0

Execution time for mesh.update() = 0 s

DILUPBiCGStab:  Solving for Ux, Initial residual = 0.00415955, Final residual = 6.3269e-09, No Iterations 3
DILUPBiCGStab:  Solving for Uy, Initial residual = 0.00863988, Final residual = 1.36283e-09, No Iterations 3
DILUPBiCGStab:  Solving for O2, Initial residual = 0.00245189, Final residual = 2.86976e-09, No Iterations 3
DILUPBiCGStab:  Solving for H2O, Initial residual = 0.00245225, Final residual = 2.86951e-09, No Iterations 3
DILUPBiCGStab:  Solving for CH4, Initial residual = 0, Final residual = 0, No Iterations 0
DILUPBiCGStab:  Solving for CO2, Initial residual = 0.00245225, Final residual = 2.86951e-09, No Iterations 3
DILUPBiCGStab:  Solving for h, Initial residual = 0.00269336, Final residual = 2.72019e-09, No Iterations 3
min/max(T) = 299.641, 1044.98
GAMGPCG:  Solving for p_rgh, Initial residual = 0.0188544, Final residual = 1.65626e-07, No Iterations 5
diagonal:  Solving for rho, Initial residual = 0, Final residual = 0, No Iterations 0
time step continuity errors : sum local = 7.19788e-09, global = -4.02296e-10, cumulative = -2.66628e-07
GAMGPCG:  Solving for p_rgh, Initial residual = 0.00285874, Final residual = 3.63486e-07, No Iterations 4
diagonal:  Solving for rho, Initial residual = 0, Final residual = 0, No Iterations 0
time step continuity errors : sum local = 1.48446e-08, global = 1.80001e-09, cumulative = -2.64828e-07
DILUPBiCGStab:  Solving for omega, Initial residual = 9.73233e-05, Final residual = 2.06088e-09, No Iterations 2
DILUPBiCGStab:  Solving for k, Initial residual = 0.00345124, Final residual = 4.44205e-09, No Iterations 3

ExecutionTime = 1.11 s  ClockTime = 1 s

    Overall     = 0.00129284, 0.01
Time = 258

diagonal:  Solving for rho, Initial residual = 0, Final residual = 0, No Iterations 0

Execution time for mesh.update() = 0 s

DILUPBiCGStab:  Solving for Ux, Initial residual = 0.00413367, Final residual = 6.12063e-09, No Iterations 3
DILUPBiCGStab:  Solving for Uy, Initial residual = 0.00857227, Final residual = 1.31759e-09, No Iterations 3
DILUPBiCGStab:  Solving for O2, Initial residual = 0.00243904, Final residual = 3.24294e-09, No Iterations 3
DILUPBiCGStab:  Solving for H2O, Initial residual = 0.00243902, Final residual = 3.24323e-09, No Iterations 3
DILUPBiCGStab:  Solving for CH4, Initial residual = 0, Final residual = 0, No Iterations 0
DILUPBiCGStab:  Solving for CO2, Initial residual = 0.00243902, Final residual = 3.24322e-09, No Iterations 3
DILUPBiCGStab:  Solving for h, Initial residual = 0.00267482, Final residual = 2.95097e-09, No Iterations 3
min/max(T) = 299.677, 1044.98
GAMGPCG:  Solving for p_rgh, Initial residual = 0.0183387, Final residual = 1.97965e-07, No Iterations 5
diagonal:  Solving for rho, Initial residual = 0, Final residual = 0, No Iterations 0
time step continuity errors : sum local = 8.57524e-09, global = -6.64521e-10, cumulative = -2.65493e-07
GAMGPCG:  Solving for p_rgh, Initial residual = 0.00281662, Final residual = 3.49667e-07, No Iterations 4
diagonal:  Solving for rho, Initial residual = 0, Final residual = 0, No Iterations 0
time step continuity errors : sum local = 1.42659e-08, global = 1.60264e-09, cumulative = -2.6389e-07
DILUPBiCGStab:  Solving for omega, Initial residual = 9.59476e-05, Final residual = 2.06462e-09, No Iterations 2
DILUPBiCGStab:  Solving for k, Initial residual = 0.00343043, Final residual = 2.16272e-09, No Iterations 3

ExecutionTime = 1.23 s  ClockTime = 1 s

    Overall     = 0.0012888, 0.01
Time = 259

diagonal:  Solving for rho, Initial residual = 0, Final residual = 0, No Iterations 0

Execution time for mesh.update() = 0 s

DILUPBiCGStab:  Solving for Ux, Initial residual = 0.00411568, Final residual = 6.74003e-09, No Iterations 3
DILUPBiCGStab:  Solving for Uy, Initial residual = 0.00854382, Final residual = 1.34453e-09, No Iterations 3
DILUPBiCGStab:  Solving for O2, Initial residual = 0.00242138, Final residual = 3.7337e-09, No Iterations 3
DILUPBiCGStab:  Solving for H2O, Initial residual = 0.00242172, Final residual = 3.73325e-09, No Iterations 3
DILUPBiCGStab:  Solving for CH4, Initial residual = 0, Final residual = 0, No Iterations 0
DILUPBiCGStab:  Solving for CO2, Initial residual = 0.00242172, Final residual = 3.73325e-09, No Iterations 3
DILUPBiCGStab:  Solving for h, Initial residual = 0.00265879, Final residual = 3.47205e-09, No Iterations 3
min/max(T) = 299.662, 1044.98
GAMGPCG:  Solving for p_rgh, Initial residual = 0.0182326, Final residual = 1.81474e-07, No Iterations 5
diagonal:  Solving for rho, Initial residual = 0, Final residual = 0, No Iterations 0
time step continuity errors : sum local = 7.91894e-09, global = -4.57995e-10, cumulative = -2.64348e-07
GAMGPCG:  Solving for p_rgh, Initial residual = 0.0028133, Final residual = 3.40046e-07, No Iterations 4
diagonal:  Solving for rho, Initial residual = 0, Final residual = 0, No Iterations 0
time step continuity errors : sum local = 1.38553e-08, global = 1.45535e-09, cumulative = -2.62893e-07
DILUPBiCGStab:  Solving for omega, Initial residual = 9.46804e-05, Final residual = 2.12423e-09, No Iterations 2
DILUPBiCGStab:  Solving for k, Initial residual = 0.0034203, Final residual = 2.24955e-09, No Iterations 3

ExecutionTime = 1.35 s  ClockTime = 1 s

    Overall     = 0.00129058, 0.01
Time = 260

diagonal:  Solving for rho, Initial residual = 0, Final residual = 0, No Iterations 0

Execution time for mesh.update() = 0 s

DILUPBiCGStab:  Solving for Ux, Initial residual = 0.00407948, Final residual = 5.95654e-09, No Iterations 3
DILUPBiCGStab:  Solving for Uy, Initial residual = 0.00848999, Final residual = 1.3724e-09, No Iterations 3
GAMGPCG:  Solving for G, Initial residual = 0.0790103, Final residual = 6.13999e-05, No Iterations 5
DILUPBiCGStab:  Solving for O2, Initial residual = 0.00241033, Final residual = 3.29213e-09, No Iterations 3
DILUPBiCGStab:  Solving for H2O, Initial residual = 0.00241029, Final residual = 3.29244e-09, No Iterations 3
DILUPBiCGStab:  Solving for CH4, Initial residual = 0, Final residual = 0, No Iterations 0
DILUPBiCGStab:  Solving for CO2, Initial residual = 0.00241029, Final residual = 3.29243e-09, No Iterations 3
DILUPBiCGStab:  Solving for h, Initial residual = 0.00264232, Final residual = 3.12382e-09, No Iterations 3
min/max(T) = 299.697, 1044.98
GAMGPCG:  Solving for p_rgh, Initial residual = 0.0179908, Final residual = 1.91568e-07, No Iterations 5
diagonal:  Solving for rho, Initial residual = 0, Final residual = 0, No Iterations 0
time step continuity errors : sum local = 8.36438e-09, global = -3.6756e-10, cumulative = -2.6326e-07
GAMGPCG:  Solving for p_rgh, Initial residual = 0.00273929, Final residual = 3.31959e-07, No Iterations 4
diagonal:  Solving for rho, Initial residual = 0, Final residual = 0, No Iterations 0
time step continuity errors : sum local = 1.3602e-08, global = 1.45385e-09, cumulative = -2.61807e-07
DILUPBiCGStab:  Solving for omega, Initial residual = 9.44794e-05, Final residual = 2.12023e-09, No Iterations 2
DILUPBiCGStab:  Solving for k, Initial residual = 0.00340434, Final residual = 2.27247e-09, No Iterations 3

ExecutionTime = 1.6 s  ClockTime = 1 s

    Overall     = 0.00128688, 0.01
Time = 261

diagonal:  Solving for rho, Initial residual = 0, Final residual = 0, No Iterations 0

Execution time for mesh.update() = 0 s

DILUPBiCGStab:  Solving for Ux, Initial residual = 0.0040399, Final residual = 5.34391e-09, No Iterations 3
DILUPBiCGStab:  Solving for Uy, Initial residual = 0.00842301, Final residual = 1.30245e-09, No Iterations 3
DILUPBiCGStab:  Solving for O2, Initial residual = 0.00239046, Final residual = 3.12071e-09, No Iterations 3
DILUPBiCGStab:  Solving for H2O, Initial residual = 0.00239078, Final residual = 3.12044e-09, No Iterations 3
DILUPBiCGStab:  Solving for CH4, Initial residual = 0, Final residual = 0, No Iterations 0
DILUPBiCGStab:  Solving for CO2, Initial residual = 0.00239078, Final residual = 3.12043e-09, No Iterations 3
DILUPBiCGStab:  Solving for h, Initial residual = 0.0026267, Final residual = 2.893e-09, No Iterations 3
min/max(T) = 299.681, 1044.98
GAMGPCG:  Solving for p_rgh, Initial residual = 0.0179621, Final residual = 1.82169e-07, No Iterations 5
diagonal:  Solving for rho, Initial residual = 0, Final residual = 0, No Iterations 0
time step continuity errors : sum local = 7.96837e-09, global = -1.83204e-10, cumulative = -2.6199e-07
GAMGPCG:  Solving for p_rgh, Initial residual = 0.00272195, Final residual = 3.11469e-07, No Iterations 4
diagonal:  Solving for rho, Initial residual = 0, Final residual = 0, No Iterations 0
time step continuity errors : sum local = 1.28862e-08, global = 1.43367e-09, cumulative = -2.60556e-07
DILUPBiCGStab:  Solving for omega, Initial residual = 9.37621e-05, Final residual = 2.19289e-09, No Iterations 2
DILUPBiCGStab:  Solving for k, Initial residual = 0.00340693, Final residual = 2.27589e-09, No Iterations 3

ExecutionTime = 1.72 s  ClockTime = 1 s

    Overall     = 0.00128866, 0.01
Time = 262

diagonal:  Solving for rho, Initial residual = 0, Final residual = 0, No Iterations 0

Execution time for mesh.update() = 0 s

DILUPBiCGStab:  Solving for Ux, Initial residual = 0.00401834, Final residual = 5.71504e-09, No Iterations 3
DILUPBiCGStab:  Solving for Uy, Initial residual = 0.0083606, Final residual = 1.49994e-09, No Iterations 3
DILUPBiCGStab:  Solving for O2, Initial residual = 0.00237979, Final residual = 3.14128e-09, No Iterations 3
DILUPBiCGStab:  Solving for H2O, Initial residual = 0.00237976, Final residual = 3.14154e-09, No Iterations 3
DILUPBiCGStab:  Solving for CH4, Initial residual = 0, Final residual = 0, No Iterations 0
DILUPBiCGStab:  Solving for CO2, Initial residual = 0.00237976, Final residual = 3.14154e-09, No Iterations 3
DILUPBiCGStab:  Solving for h, Initial residual = 0.00260995, Final residual = 2.9345e-09, No Iterations 3
min/max(T) = 299.714, 1044.98
GAMGPCG:  Solving for p_rgh, Initial residual = 0.0176743, Final residual = 1.2183e-07, No Iterations 5
diagonal:  Solving for rho, Initial residual = 0, Final residual = 0, No Iterations 0
time step continuity errors : sum local = 5.53789e-09, global = -8.73712e-10, cumulative = -2.6143e-07
GAMGPCG:  Solving for p_rgh, Initial residual = 0.00268859, Final residual = 2.98703e-07, No Iterations 4
diagonal:  Solving for rho, Initial residual = 0, Final residual = 0, No Iterations 0
time step continuity errors : sum local = 1.24717e-08, global = 1.49711e-09, cumulative = -2.59933e-07
DILUPBiCGStab:  Solving for omega, Initial residual = 9.27695e-05, Final residual = 2.15611e-09, No Iterations 2
DILUPBiCGStab:  Solving for k, Initial residual = 0.0033985, Final residual = 2.13363e-09, No Iterations 3

ExecutionTime = 1.84 s  ClockTime = 1 s

    Overall     = 0.00128531, 0.01
Time = 263

diagonal:  Solving for rho, Initial residual = 0, Final residual = 0, No Iterations 0

Execution time for mesh.update() = 0 s

DILUPBiCGStab:  Solving for Ux, Initial residual = 0.00400021, Final residual = 6.14572e-09, No Iterations 3
DILUPBiCGStab:  Solving for Uy, Initial residual = 0.0083612, Final residual = 1.63355e-09, No Iterations 3
DILUPBiCGStab:  Solving for O2, Initial residual = 0.00236285, Final residual = 3.31678e-09, No Iterations 3
DILUPBiCGStab:  Solving for H2O, Initial residual = 0.00236315, Final residual = 3.31654e-09, No Iterations 3
DILUPBiCGStab:  Solving for CH4, Initial residual = 0, Final residual = 0, No Iterations 0
DILUPBiCGStab:  Solving for CO2, Initial residual = 0.00236315, Final residual = 3.31654e-09, No Iterations 3
DILUPBiCGStab:  Solving for h, Initial residual = 0.00259218, Final residual = 3.09029e-09, No Iterations 3
min/max(T) = 299.698, 1044.98
GAMGPCG:  Solving for p_rgh, Initial residual = 0.0174474, Final residual = 1.06424e-07, No Iterations 5
diagonal:  Solving for rho, Initial residual = 0, Final residual = 0, No Iterations 0
time step continuity errors : sum local = 4.88424e-09, global = -8.69481e-10, cumulative = -2.60802e-07
GAMGPCG:  Solving for p_rgh, Initial residual = 0.00270471, Final residual = 2.98187e-07, No Iterations 4
diagonal:  Solving for rho, Initial residual = 0, Final residual = 0, No Iterations 0
time step continuity errors : sum local = 1.24745e-08, global = 1.44809e-09, cumulative = -2.59354e-07
DILUPBiCGStab:  Solving for omega, Initial residual = 9.24192e-05, Final residual = 2.11846e-09, No Iterations 2
DILUPBiCGStab:  Solving for k, Initial residual = 0.00338525, Final residual = 1.92994e-09, No Iterations 3

ExecutionTime = 1.96 s  ClockTime = 2 s

    Overall     = 0.00128705, 0.01
Time = 264

diagonal:  Solving for rho, Initial residual = 0, Final residual = 0, No Iterations 0

Execution time for mesh.update() = 0 s

DILUPBiCGStab:  Solving for Ux, Initial residual = 0.00396899, Final residual = 7.16429e-09, No Iterations 3
DILUPBiCGStab:  Solving for Uy, Initial residual = 0.00831566, Final residual = 1.6341e-09, No Iterations 3
DILUPBiCGStab:  Solving for O2, Initial residual = 0.00234819, Final residual = 3.90065e-09, No Iterations 3
DILUPBiCGStab:  Solving for H2O, Initial residual = 0.00234817, Final residual = 3.90099e-09, No Iterations 3
DILUPBiCGStab:  Solving for CH4, Initial residual = 0, Final residual = 0, No Iterations 0
DILUPBiCGStab:  Solving for CO2, Initial residual = 0.00234817, Final residual = 3.90099e-09, No Iterations 3
DILUPBiCGStab:  Solving for h, Initial residual = 0.00257597, Final residual = 3.75162e-09, No Iterations 3
min/max(T) = 299.728, 1044.98
GAMGPCG:  Solving for p_rgh, Initial residual = 0.0172931, Final residual = 9.89193e-07, No Iterations 4
diagonal:  Solving for rho, Initial residual = 0, Final residual = 0, No Iterations 0
time step continuity errors : sum local = 4.10333e-08, global = -2.16328e-09, cumulative = -2.61517e-07
GAMGPCG:  Solving for p_rgh, Initial residual = 0.00265349, Final residual = 2.74876e-07, No Iterations 4
diagonal:  Solving for rho, Initial residual = 0, Final residual = 0, No Iterations 0
time step continuity errors : sum local = 1.16014e-08, global = 1.40839e-09, cumulative = -2.60109e-07
DILUPBiCGStab:  Solving for omega, Initial residual = 9.11871e-05, Final residual = 2.03758e-09, No Iterations 2
DILUPBiCGStab:  Solving for k, Initial residual = 0.00337537, Final residual = 1.88334e-09, No Iterations 3

ExecutionTime = 2.08 s  ClockTime = 2 s

    Overall     = 0.00128396, 0.01
Time = 265

diagonal:  Solving for rho, Initial residual = 0, Final residual = 0, No Iterations 0

Execution time for mesh.update() = 0 s

DILUPBiCGStab:  Solving for Ux, Initial residual = 0.00393851, Final residual = 7.92573e-09, No Iterations 3
DILUPBiCGStab:  Solving for Uy, Initial residual = 0.00827939, Final residual = 1.59656e-09, No Iterations 3
DILUPBiCGStab:  Solving for O2, Initial residual = 0.00233504, Final residual = 5.17194e-09, No Iterations 3
DILUPBiCGStab:  Solving for H2O, Initial residual = 0.00233533, Final residual = 5.17136e-09, No Iterations 3
DILUPBiCGStab:  Solving for CH4, Initial residual = 0, Final residual = 0, No Iterations 0
DILUPBiCGStab:  Solving for CO2, Initial residual = 0.00233534, Final residual = 5.17136e-09, No Iterations 3
DILUPBiCGStab:  Solving for h, Initial residual = 0.00256121, Final residual = 4.95495e-09, No Iterations 3
min/max(T) = 299.713, 1044.98
GAMGPCG:  Solving for p_rgh, Initial residual = 0.017241, Final residual = 9.67069e-07, No Iterations 4
diagonal:  Solving for rho, Initial residual = 0, Final residual = 0, No Iterations 0
time step continuity errors : sum local = 4.04446e-08, global = 2.34268e-09, cumulative = -2.57766e-07
GAMGPCG:  Solving for p_rgh, Initial residual = 0.0026307, Final residual = 2.8166e-07, No Iterations 4
diagonal:  Solving for rho, Initial residual = 0, Final residual = 0, No Iterations 0
time step continuity errors : sum local = 1.18935e-08, global = 1.37275e-09, cumulative = -2.56394e-07
DILUPBiCGStab:  Solving for omega, Initial residual = 9.0375e-05, Final residual = 2.09039e-09, No Iterations 2
DILUPBiCGStab:  Solving for k, Initial residual = 0.00337294, Final residual = 2.26249e-09, No Iterations 3

ExecutionTime = 2.2 s  ClockTime = 2 s

    Overall     = 0.00128582, 0.01
Time = 266

diagonal:  Solving for rho, Initial residual = 0, Final residual = 0, No Iterations 0

Execution time for mesh.update() = 0 s

DILUPBiCGStab:  Solving for Ux, Initial residual = 0.00392062, Final residual = 8.4483e-09, No Iterations 3
DILUPBiCGStab:  Solving for Uy, Initial residual = 0.00826241, Final residual = 1.78282e-09, No Iterations 3
DILUPBiCGStab:  Solving for O2, Initial residual = 0.00232456, Final residual = 4.36307e-09, No Iterations 3
DILUPBiCGStab:  Solving for H2O, Initial residual = 0.00232453, Final residual = 4.36351e-09, No Iterations 3
DILUPBiCGStab:  Solving for CH4, Initial residual = 0, Final residual = 0, No Iterations 0
DILUPBiCGStab:  Solving for CO2, Initial residual = 0.00232453, Final residual = 4.36352e-09, No Iterations 3
DILUPBiCGStab:  Solving for h, Initial residual = 0.00255111, Final residual = 4.34051e-09, No Iterations 3
min/max(T) = 299.739, 1044.98
GAMGPCG:  Solving for p_rgh, Initial residual = 0.0173344, Final residual = 9.38088e-07, No Iterations 4
diagonal:  Solving for rho, Initial residual = 0, Final residual = 0, No Iterations 0
time step continuity errors : sum local = 4.00396e-08, global = 2.51001e-09, cumulative = -2.53884e-07
GAMGPCG:  Solving for p_rgh, Initial residual = 0.00261156, Final residual = 2.66749e-07, No Iterations 4
diagonal:  Solving for rho, Initial residual = 0, Final residual = 0, No Iterations 0
time step continuity errors : sum local = 1.13285e-08, global = 1.59757e-09, cumulative = -2.52286e-07
DILUPBiCGStab:  Solving for omega, Initial residual = 8.96372e-05, Final residual = 2.13497e-09, No Iterations 2
DILUPBiCGStab:  Solving for k, Initial residual = 0.00337518, Final residual = 2.47445e-09, No Iterations 3

ExecutionTime = 2.31 s  ClockTime = 2 s

    Overall     = 0.00128298, 0.01
Time = 267

diagonal:  Solving for rho, Initial residual = 0, Final residual = 0, No Iterations 0

Execution time for mesh.update() = 0 s

DILUPBiCGStab:  Solving for Ux, Initial residual = 0.00389406, Final residual = 8.72342e-09, No Iterations 3
DILUPBiCGStab:  Solving for Uy, Initial residual = 0.0082456, Final residual = 1.7419e-09, No Iterations 3
DILUPBiCGStab:  Solving for O2, Initial residual = 0.00231564, Final residual = 5.12151e-09, No Iterations 3
DILUPBiCGStab:  Solving for H2O, Initial residual = 0.00231593, Final residual = 5.12088e-09, No Iterations 3
DILUPBiCGStab:  Solving for CH4, Initial residual = 0, Final residual = 0, No Iterations 0
DILUPBiCGStab:  Solving for CO2, Initial residual = 0.00231593, Final residual = 5.12088e-09, No Iterations 3
DILUPBiCGStab:  Solving for h, Initial residual = 0.0025392, Final residual = 4.95613e-09, No Iterations 3
min/max(T) = 299.724, 1044.98
GAMGPCG:  Solving for p_rgh, Initial residual = 0.0171667, Final residual = 1.68727e-07, No Iterations 5
diagonal:  Solving for rho, Initial residual = 0, Final residual = 0, No Iterations 0
time step continuity errors : sum local = 7.35941e-09, global = -4.01264e-11, cumulative = -2.52326e-07
GAMGPCG:  Solving for p_rgh, Initial residual = 0.00259952, Final residual = 2.53488e-07, No Iterations 4
diagonal:  Solving for rho, Initial residual = 0, Final residual = 0, No Iterations 0
time step continuity errors : sum local = 1.08035e-08, global = 1.59019e-09, cumulative = -2.50736e-07
DILUPBiCGStab:  Solving for omega, Initial residual = 8.91048e-05, Final residual = 2.21746e-09, No Iterations 2
DILUPBiCGStab:  Solving for k, Initial residual = 0.00337605, Final residual = 2.56857e-09, No Iterations 3

ExecutionTime = 2.43 s  ClockTime = 2 s

    Overall     = 0.00128506, 0.01
Time = 268

diagonal:  Solving for rho, Initial residual = 0, Final residual = 0, No Iterations 0

Execution time for mesh.update() = 0 s

DILUPBiCGStab:  Solving for Ux, Initial residual = 0.00387129, Final residual = 9.53207e-09, No Iterations 3
DILUPBiCGStab:  Solving for Uy, Initial residual = 0.00820009, Final residual = 1.89583e-09, No Iterations 3
DILUPBiCGStab:  Solving for O2, Initial residual = 0.00230225, Final residual = 4.25972e-09, No Iterations 3
DILUPBiCGStab:  Solving for H2O, Initial residual = 0.00230218, Final residual = 4.26016e-09, No Iterations 3
DILUPBiCGStab:  Solving for CH4, Initial residual = 0, Final residual = 0, No Iterations 0
DILUPBiCGStab:  Solving for CO2, Initial residual = 0.00230218, Final residual = 4.26016e-09, No Iterations 3
DILUPBiCGStab:  Solving for h, Initial residual = 0.00252724, Final residual = 4.34078e-09, No Iterations 3
min/max(T) = 299.747, 1044.98
GAMGPCG:  Solving for p_rgh, Initial residual = 0.0171683, Final residual = 1.85029e-07, No Iterations 5
diagonal:  Solving for rho, Initial residual = 0, Final residual = 0, No Iterations 0
time step continuity errors : sum local = 8.00311e-09, global = -8.85976e-11, cumulative = -2.50825e-07
GAMGPCG:  Solving for p_rgh, Initial residual = 0.00255342, Final residual = 2.93622e-07, No Iterations 4
diagonal:  Solving for rho, Initial residual = 0, Final residual = 0, No Iterations 0
time step continuity errors : sum local = 1.24032e-08, global = 1.4743e-09, cumulative = -2.4935e-07
DILUPBiCGStab:  Solving for omega, Initial residual = 8.83083e-05, Final residual = 2.25114e-09, No Iterations 2
DILUPBiCGStab:  Solving for k, Initial residual = 0.00337426, Final residual = 2.948e-09, No Iterations 3

ExecutionTime = 2.55 s  ClockTime = 2 s

    Overall     = 0.00128243, 0.01
Time = 269

diagonal:  Solving for rho, Initial residual = 0, Final residual = 0, No Iterations 0

Execution time for mesh.update() = 0 s

DILUPBiCGStab:  Solving for Ux, Initial residual = 0.00383918, Final residual = 9.62823e-09, No Iterations 3
DILUPBiCGStab:  Solving for Uy, Initial residual = 0.00819516, Final residual = 2.05895e-09, No Iterations 3
DILUPBiCGStab:  Solving for O2, Initial residual = 0.00229019, Final residual = 4.94005e-09, No Iterations 3
DILUPBiCGStab:  Solving for H2O, Initial residual = 0.00229047, Final residual = 4.93921e-09, No Iterations 3
DILUPBiCGStab:  Solving for CH4, Initial residual = 0, Final residual = 0, No Iterations 0
DILUPBiCGStab:  Solving for CO2, Initial residual = 0.00229047, Final residual = 4.93921e-09, No Iterations 3
DILUPBiCGStab:  Solving for h, Initial residual = 0.00251545, Final residual = 5.19856e-09, No Iterations 3
min/max(T) = 299.732, 1044.98
GAMGPCG:  Solving for p_rgh, Initial residual = 0.0174131, Final residual = 8.98902e-07, No Iterations 4
diagonal:  Solving for rho, Initial residual = 0, Final residual = 0, No Iterations 0
time step continuity errors : sum local = 3.81262e-08, global = -4.21104e-10, cumulative = -2.49771e-07
GAMGPCG:  Solving for p_rgh, Initial residual = 0.00256406, Final residual = 2.86596e-07, No Iterations 4
diagonal:  Solving for rho, Initial residual = 0, Final residual = 0, No Iterations 0
time step continuity errors : sum local = 1.2153e-08, global = 1.38487e-09, cumulative = -2.48386e-07
DILUPBiCGStab:  Solving for omega, Initial residual = 8.73673e-05, Final residual = 2.26657e-09, No Iterations 2
DILUPBiCGStab:  Solving for k, Initial residual = 0.00338544, Final residual = 3.04957e-09, No Iterations 3

ExecutionTime = 2.67 s  ClockTime = 2 s

    Overall     = 0.00128477, 0.01
Time = 270

diagonal:  Solving for rho, Initial residual = 0, Final residual = 0, No Iterations 0

Execution time for mesh.update() = 0 s

DILUPBiCGStab:  Solving for Ux, Initial residual = 0.003811, Final residual = 8.44452e-09, No Iterations 3
DILUPBiCGStab:  Solving for Uy, Initial residual = 0.0081911, Final residual = 2.06137e-09, No Iterations 3
GAMGPCG:  Solving for G, Initial residual = 0.0804098, Final residual = 5.5214e-05, No Iterations 5
DILUPBiCGStab:  Solving for O2, Initial residual = 0.00228126, Final residual = 4.23321e-09, No Iterations 3
DILUPBiCGStab:  Solving for H2O, Initial residual = 0.0022812, Final residual = 4.23403e-09, No Iterations 3
DILUPBiCGStab:  Solving for CH4, Initial residual = 0, Final residual = 0, No Iterations 0
DILUPBiCGStab:  Solving for CO2, Initial residual = 0.00228121, Final residual = 4.23403e-09, No Iterations 3
DILUPBiCGStab:  Solving for h, Initial residual = 0.00250632, Final residual = 4.4638e-09, No Iterations 3
min/max(T) = 299.751, 1044.98
GAMGPCG:  Solving for p_rgh, Initial residual = 0.0171225, Final residual = 9.78864e-07, No Iterations 4
diagonal:  Solving for rho, Initial residual = 0, Final residual = 0, No Iterations 0
time step continuity errors : sum local = 4.23846e-08, global = 1.59086e-10, cumulative = -2.48227e-07
GAMGPCG:  Solving for p_rgh, Initial residual = 0.00256267, Final residual = 3.02263e-07, No Iterations 4
diagonal:  Solving for rho, Initial residual = 0, Final residual = 0, No Iterations 0
time step continuity errors : sum local = 1.28324e-08, global = 1.62145e-09, cumulative = -2.46606e-07
DILUPBiCGStab:  Solving for omega, Initial residual = 8.93073e-05, Final residual = 2.35549e-09, No Iterations 2
bounding omega, min: -3.45486 max: 15646 average: 295.519
DILUPBiCGStab:  Solving for k, Initial residual = 0.00339811, Final residual = 2.90242e-09, No Iterations 3

ExecutionTime = 2.92 s  ClockTime = 3 s

    Overall     = 0.00128246, 0.01
Time = 271

diagonal:  Solving for rho, Initial residual = 0, Final residual = 0, No Iterations 0

Execution time for mesh.update() = 0 s

DILUPBiCGStab:  Solving for Ux, Initial residual = 0.00380035, Final residual = 7.55199e-09, No Iterations 3
DILUPBiCGStab:  Solving for Uy, Initial residual = 0.00821022, Final residual = 1.77377e-09, No Iterations 3
DILUPBiCGStab:  Solving for O2, Initial residual = 0.00227078, Final residual = 4.05251e-09, No Iterations 3
DILUPBiCGStab:  Solving for H2O, Initial residual = 0.00227105, Final residual = 4.05159e-09, No Iterations 3
DILUPBiCGStab:  Solving for CH4, Initial residual = 0, Final residual = 0, No Iterations 0
DILUPBiCGStab:  Solving for CO2, Initial residual = 0.00227105, Final residual = 4.05159e-09, No Iterations 3
DILUPBiCGStab:  Solving for h, Initial residual = 0.00249694, Final residual = 4.5646e-09, No Iterations 3
min/max(T) = 299.735, 1044.98
GAMGPCG:  Solving for p_rgh, Initial residual = 0.0173641, Final residual = 7.60615e-07, No Iterations 4
diagonal:  Solving for rho, Initial residual = 0, Final residual = 0, No Iterations 0
time step continuity errors : sum local = 3.26575e-08, global = -3.47737e-09, cumulative = -2.50083e-07
GAMGPCG:  Solving for p_rgh, Initial residual = 0.00254858, Final residual = 2.71465e-07, No Iterations 4
diagonal:  Solving for rho, Initial residual = 0, Final residual = 0, No Iterations 0
time step continuity errors : sum local = 1.16485e-08, global = 1.29989e-09, cumulative = -2.48783e-07
DILUPBiCGStab:  Solving for omega, Initial residual = 8.83608e-05, Final residual = 2.22056e-09, No Iterations 2
DILUPBiCGStab:  Solving for k, Initial residual = 0.00341097, Final residual = 2.70421e-09, No Iterations 3

ExecutionTime = 3.04 s  ClockTime = 3 s

    Overall     = 0.00128516, 0.01
Time = 272

diagonal:  Solving for rho, Initial residual = 0, Final residual = 0, No Iterations 0

Execution time for mesh.update() = 0 s

DILUPBiCGStab:  Solving for Ux, Initial residual = 0.00376718, Final residual = 7.5988e-09, No Iterations 3
DILUPBiCGStab:  Solving for Uy, Initial residual = 0.0081625, Final residual = 1.60639e-09, No Iterations 3
DILUPBiCGStab:  Solving for O2, Initial residual = 0.00225919, Final residual = 3.4316e-09, No Iterations 3
DILUPBiCGStab:  Solving for H2O, Initial residual = 0.00225922, Final residual = 3.43256e-09, No Iterations 3
DILUPBiCGStab:  Solving for CH4, Initial residual = 0, Final residual = 0, No Iterations 0
DILUPBiCGStab:  Solving for CO2, Initial residual = 0.00225922, Final residual = 3.43257e-09, No Iterations 3
DILUPBiCGStab:  Solving for h, Initial residual = 0.00248301, Final residual = 3.88547e-09, No Iterations 3
min/max(T) = 299.748, 1044.98
GAMGPCG:  Solving for p_rgh, Initial residual = 0.0173059, Final residual = 1.15921e-07, No Iterations 5
diagonal:  Solving for rho, Initial residual = 0, Final residual = 0, No Iterations 0
time step continuity errors : sum local = 5.15025e-09, global = 7.95773e-10, cumulative = -2.47988e-07
GAMGPCG:  Solving for p_rgh, Initial residual = 0.0025833, Final residual = 2.89542e-07, No Iterations 4
diagonal:  Solving for rho, Initial residual = 0, Final residual = 0, No Iterations 0
time step continuity errors : sum local = 1.23754e-08, global = 1.46917e-09, cumulative = -2.46519e-07
DILUPBiCGStab:  Solving for omega, Initial residual = 8.55697e-05, Final residual = 1.88548e-09, No Iterations 2
DILUPBiCGStab:  Solving for k, Initial residual = 0.00341755, Final residual = 2.91386e-09, No Iterations 3

ExecutionTime = 3.16 s  ClockTime = 3 s

    Overall     = 0.00128304, 0.01
Time = 273

diagonal:  Solving for rho, Initial residual = 0, Final residual = 0, No Iterations 0

Execution time for mesh.update() = 0 s

DILUPBiCGStab:  Solving for Ux, Initial residual = 0.00374456, Final residual = 9.09178e-09, No Iterations 3
DILUPBiCGStab:  Solving for Uy, Initial residual = 0.00815629, Final residual = 1.68513e-09, No Iterations 3
DILUPBiCGStab:  Solving for O2, Initial residual = 0.00224781, Final residual = 3.05336e-09, No Iterations 3
DILUPBiCGStab:  Solving for H2O, Initial residual = 0.00224808, Final residual = 3.05247e-09, No Iterations 3
DILUPBiCGStab:  Solving for CH4, Initial residual = 0, Final residual = 0, No Iterations 0
DILUPBiCGStab:  Solving for CO2, Initial residual = 0.00224808, Final residual = 3.05247e-09, No Iterations 3
DILUPBiCGStab:  Solving for h, Initial residual = 0.00247135, Final residual = 4.11475e-09, No Iterations 3
min/max(T) = 299.729, 1044.98
GAMGPCG:  Solving for p_rgh, Initial residual = 0.0172581, Final residual = 9.37348e-07, No Iterations 4
diagonal:  Solving for rho, Initial residual = 0, Final residual = 0, No Iterations 0
time step continuity errors : sum local = 4.06984e-08, global = -5.00563e-09, cumulative = -2.51524e-07
GAMGPCG:  Solving for p_rgh, Initial residual = 0.00255842, Final residual = 2.67993e-07, No Iterations 4
diagonal:  Solving for rho, Initial residual = 0, Final residual = 0, No Iterations 0
time step continuity errors : sum local = 1.14976e-08, global = 1.38769e-09, cumulative = -2.50136e-07
DILUPBiCGStab:  Solving for omega, Initial residual = 8.30048e-05, Final residual = 1.65558e-09, No Iterations 2
DILUPBiCGStab:  Solving for k, Initial residual = 0.00343911, Final residual = 3.08062e-09, No Iterations 3

ExecutionTime = 3.27 s  ClockTime = 3 s

    Overall     = 0.00128601, 0.01
Time = 274

diagonal:  Solving for rho, Initial residual = 0, Final residual = 0, No Iterations 0

Execution time for mesh.update() = 0 s

DILUPBiCGStab:  Solving for Ux, Initial residual = 0.00370476, Final residual = 7.55329e-09, No Iterations 3
DILUPBiCGStab:  Solving for Uy, Initial residual = 0.00814349, Final residual = 1.6211e-09, No Iterations 3
DILUPBiCGStab:  Solving for O2, Initial residual = 0.00223406, Final residual = 2.77677e-09, No Iterations 3
DILUPBiCGStab:  Solving for H2O, Initial residual = 0.00223404, Final residual = 2.77774e-09, No Iterations 3
DILUPBiCGStab:  Solving for CH4, Initial residual = 0, Final residual = 0, No Iterations 0
DILUPBiCGStab:  Solving for CO2, Initial residual = 0.00223404, Final residual = 2.77774e-09, No Iterations 3
DILUPBiCGStab:  Solving for h, Initial residual = 0.00245951, Final residual = 3.45011e-09, No Iterations 3
min/max(T) = 299.739, 1044.98
GAMGPCG:  Solving for p_rgh, Initial residual = 0.0173616, Final residual = 1.06937e-07, No Iterations 5
diagonal:  Solving for rho, Initial residual = 0, Final residual = 0, No Iterations 0
time step continuity errors : sum local = 4.82862e-09, global = -5.02379e-10, cumulative = -2.50639e-07
GAMGPCG:  Solving for p_rgh, Initial residual = 0.00259423, Final residual = 2.59268e-07, No Iterations 4
diagonal:  Solving for rho, Initial residual = 0, Final residual = 0, No Iterations 0
time step continuity errors : sum local = 1.11102e-08, global = 1.63377e-09, cumulative = -2.49005e-07
DILUPBiCGStab:  Solving for omega, Initial residual = 8.18163e-05, Final residual = 1.42188e-09, No Iterations 2
DILUPBiCGStab:  Solving for k, Initial residual = 0.00345691, Final residual = 2.7595e-09, No Iterations 3

ExecutionTime = 3.39 s  ClockTime = 3 s

    Overall     = 0.00128407, 0.01
Time = 275

diagonal:  Solving for rho, Initial residual = 0, Final residual = 0, No Iterations 0

Execution time for mesh.update() = 0 s

DILUPBiCGStab:  Solving for Ux, Initial residual = 0.00369946, Final residual = 6.48365e-09, No Iterations 3
DILUPBiCGStab:  Solving for Uy, Initial residual = 0.00818476, Final residual = 1.70402e-09, No Iterations 3
DILUPBiCGStab:  Solving for O2, Initial residual = 0.00222896, Final residual = 2.60515e-09, No Iterations 3
DILUPBiCGStab:  Solving for H2O, Initial residual = 0.00222926, Final residual = 2.60436e-09, No Iterations 3
DILUPBiCGStab:  Solving for CH4, Initial residual = 0, Final residual = 0, No Iterations 0
DILUPBiCGStab:  Solving for CO2, Initial residual = 0.00222926, Final residual = 2.60436e-09, No Iterations 3
DILUPBiCGStab:  Solving for h, Initial residual = 0.00245611, Final residual = 2.90594e-09, No Iterations 3
min/max(T) = 299.72, 1044.98
GAMGPCG:  Solving for p_rgh, Initial residual = 0.0175873, Final residual = 1.46724e-07, No Iterations 5
diagonal:  Solving for rho, Initial residual = 0, Final residual = 0, No Iterations 0
time step continuity errors : sum local = 6.66154e-09, global = -2.54002e-10, cumulative = -2.49259e-07
GAMGPCG:  Solving for p_rgh, Initial residual = 0.00259314, Final residual = 2.6661e-07, No Iterations 4
diagonal:  Solving for rho, Initial residual = 0, Final residual = 0, No Iterations 0
time step continuity errors : sum local = 1.14548e-08, global = 1.9142e-09, cumulative = -2.47345e-07
DILUPBiCGStab:  Solving for omega, Initial residual = 8.01697e-05, Final residual = 1.28434e-09, No Iterations 2
DILUPBiCGStab:  Solving for k, Initial residual = 0.00347689, Final residual = 2.31745e-09, No Iterations 3

ExecutionTime = 3.51 s  ClockTime = 3 s

    Overall     = 0.00128736, 0.01
Time = 276

diagonal:  Solving for rho, Initial residual = 0, Final residual = 0, No Iterations 0

Execution time for mesh.update() = 0 s

DILUPBiCGStab:  Solving for Ux, Initial residual = 0.00368382, Final residual = 6.21849e-09, No Iterations 3
DILUPBiCGStab:  Solving for Uy, Initial residual = 0.00818991, Final residual = 1.4502e-09, No Iterations 3
DILUPBiCGStab:  Solving for O2, Initial residual = 0.00221709, Final residual = 2.43876e-09, No Iterations 3
DILUPBiCGStab:  Solving for H2O, Initial residual = 0.00221717, Final residual = 2.43947e-09, No Iterations 3
DILUPBiCGStab:  Solving for CH4, Initial residual = 0, Final residual = 0, No Iterations 0
DILUPBiCGStab:  Solving for CO2, Initial residual = 0.00221717, Final residual = 2.43947e-09, No Iterations 3
DILUPBiCGStab:  Solving for h, Initial residual = 0.00244545, Final residual = 2.60097e-09, No Iterations 3
min/max(T) = 299.727, 1044.98
GAMGPCG:  Solving for p_rgh, Initial residual = 0.0175066, Final residual = 1.34795e-07, No Iterations 5
diagonal:  Solving for rho, Initial residual = 0, Final residual = 0, No Iterations 0
time step continuity errors : sum local = 6.11605e-09, global = -1.99085e-10, cumulative = -2.47544e-07
GAMGPCG:  Solving for p_rgh, Initial residual = 0.00261896, Final residual = 2.79075e-07, No Iterations 4
diagonal:  Solving for rho, Initial residual = 0, Final residual = 0, No Iterations 0
time step continuity errors : sum local = 1.20217e-08, global = 2.10179e-09, cumulative = -2.45442e-07
DILUPBiCGStab:  Solving for omega, Initial residual = 7.9578e-05, Final residual = 1.30399e-09, No Iterations 2
DILUPBiCGStab:  Solving for k, Initial residual = 0.00349333, Final residual = 2.39192e-09, No Iterations 3

ExecutionTime = 3.63 s  ClockTime = 3 s

    Overall     = 0.00128558, 0.01
Time = 277

diagonal:  Solving for rho, Initial residual = 0, Final residual = 0, No Iterations 0

Execution time for mesh.update() = 0 s

DILUPBiCGStab:  Solving for Ux, Initial residual = 0.00366502, Final residual = 5.89037e-09, No Iterations 3
DILUPBiCGStab:  Solving for Uy, Initial residual = 0.00817867, Final residual = 1.61281e-09, No Iterations 3
DILUPBiCGStab:  Solving for O2, Initial residual = 0.00221207, Final residual = 2.27511e-09, No Iterations 3
DILUPBiCGStab:  Solving for H2O, Initial residual = 0.00221243, Final residual = 2.27471e-09, No Iterations 3
DILUPBiCGStab:  Solving for CH4, Initial residual = 0, Final residual = 0, No Iterations 0
DILUPBiCGStab:  Solving for CO2, Initial residual = 0.00221243, Final residual = 2.27472e-09, No Iterations 3
DILUPBiCGStab:  Solving for h, Initial residual = 0.00243972, Final residual = 2.36371e-09, No Iterations 3
min/max(T) = 299.707, 1044.98
GAMGPCG:  Solving for p_rgh, Initial residual = 0.0176912, Final residual = 1.39517e-07, No Iterations 5
diagonal:  Solving for rho, Initial residual = 0, Final residual = 0, No Iterations 0
time step continuity errors : sum local = 6.29542e-09, global = 5.1944e-11, cumulative = -2.4539e-07
GAMGPCG:  Solving for p_rgh, Initial residual = 0.00259669, Final residual = 2.68176e-07, No Iterations 4
diagonal:  Solving for rho, Initial residual = 0, Final residual = 0, No Iterations 0
time step continuity errors : sum local = 1.16121e-08, global = 2.08362e-09, cumulative = -2.43307e-07
DILUPBiCGStab:  Solving for omega, Initial residual = 7.81732e-05, Final residual = 1.42366e-09, No Iterations 2
DILUPBiCGStab:  Solving for k, Initial residual = 0.00350638, Final residual = 2.64097e-09, No Iterations 3

ExecutionTime = 3.74 s  ClockTime = 3 s

    Overall     = 0.00128917, 0.01
Time = 278

diagonal:  Solving for rho, Initial residual = 0, Final residual = 0, No Iterations 0

Execution time for mesh.update() = 0 s

DILUPBiCGStab:  Solving for Ux, Initial residual = 0.00363986, Final residual = 5.8306e-09, No Iterations 3
DILUPBiCGStab:  Solving for Uy, Initial residual = 0.00819431, Final residual = 1.63438e-09, No Iterations 3
DILUPBiCGStab:  Solving for O2, Initial residual = 0.0022015, Final residual = 2.32124e-09, No Iterations 3
DILUPBiCGStab:  Solving for H2O, Initial residual = 0.00220163, Final residual = 2.32159e-09, No Iterations 3
DILUPBiCGStab:  Solving for CH4, Initial residual = 0, Final residual = 0, No Iterations 0
DILUPBiCGStab:  Solving for CO2, Initial residual = 0.00220163, Final residual = 2.32159e-09, No Iterations 3
DILUPBiCGStab:  Solving for h, Initial residual = 0.00242905, Final residual = 2.39885e-09, No Iterations 3
min/max(T) = 299.712, 1044.98
GAMGPCG:  Solving for p_rgh, Initial residual = 0.0176075, Final residual = 1.44682e-07, No Iterations 5
diagonal:  Solving for rho, Initial residual = 0, Final residual = 0, No Iterations 0
time step continuity errors : sum local = 6.50593e-09, global = 9.5282e-11, cumulative = -2.43211e-07
GAMGPCG:  Solving for p_rgh, Initial residual = 0.00261321, Final residual = 2.68329e-07, No Iterations 4
diagonal:  Solving for rho, Initial residual = 0, Final residual = 0, No Iterations 0
time step continuity errors : sum local = 1.16413e-08, global = 2.1258e-09, cumulative = -2.41086e-07
DILUPBiCGStab:  Solving for omega, Initial residual = 7.77282e-05, Final residual = 1.40333e-09, No Iterations 2
DILUPBiCGStab:  Solving for k, Initial residual = 0.003518, Final residual = 3.2907e-09, No Iterations 3

ExecutionTime = 3.86 s  ClockTime = 4 s

    Overall     = 0.00128754, 0.01
Time = 279

diagonal:  Solving for rho, Initial residual = 0, Final residual = 0, No Iterations 0

Execution time for mesh.update() = 0.01 s

DILUPBiCGStab:  Solving for Ux, Initial residual = 0.0036343, Final residual = 5.96665e-09, No Iterations 3
DILUPBiCGStab:  Solving for Uy, Initial residual = 0.00822779, Final residual = 1.90379e-09, No Iterations 3
DILUPBiCGStab:  Solving for O2, Initial residual = 0.00219779, Final residual = 2.44756e-09, No Iterations 3
DILUPBiCGStab:  Solving for H2O, Initial residual = 0.00219817, Final residual = 2.44701e-09, No Iterations 3
DILUPBiCGStab:  Solving for CH4, Initial residual = 0, Final residual = 0, No Iterations 0
DILUPBiCGStab:  Solving for CO2, Initial residual = 0.00219817, Final residual = 2.44701e-09, No Iterations 3
DILUPBiCGStab:  Solving for h, Initial residual = 0.0024288, Final residual = 2.54794e-09, No Iterations 3
min/max(T) = 299.69, 1044.98
GAMGPCG:  Solving for p_rgh, Initial residual = 0.0176225, Final residual = 1.58944e-07, No Iterations 5
diagonal:  Solving for rho, Initial residual = 0, Final residual = 0, No Iterations 0
time step continuity errors : sum local = 7.1329e-09, global = 2.4899e-10, cumulative = -2.40837e-07
GAMGPCG:  Solving for p_rgh, Initial residual = 0.00264115, Final residual = 2.65714e-07, No Iterations 4
diagonal:  Solving for rho, Initial residual = 0, Final residual = 0, No Iterations 0
time step continuity errors : sum local = 1.15405e-08, global = 1.96437e-09, cumulative = -2.38872e-07
DILUPBiCGStab:  Solving for omega, Initial residual = 7.6533e-05, Final residual = 1.55103e-09, No Iterations 2
DILUPBiCGStab:  Solving for k, Initial residual = 0.00352775, Final residual = 2.12777e-09, No Iterations 3

ExecutionTime = 3.98 s  ClockTime = 4 s

    Overall     = 0.00129146, 0.01
Time = 280

diagonal:  Solving for rho, Initial residual = 0, Final residual = 0, No Iterations 0

Execution time for mesh.update() = 0.01 s

DILUPBiCGStab:  Solving for Ux, Initial residual = 0.00360712, Final residual = 6.06675e-09, No Iterations 3
DILUPBiCGStab:  Solving for Uy, Initial residual = 0.0082437, Final residual = 1.86921e-09, No Iterations 3
GAMGPCG:  Solving for G, Initial residual = 0.0900857, Final residual = 5.47335e-05, No Iterations 5
DILUPBiCGStab:  Solving for O2, Initial residual = 0.00219297, Final residual = 2.61691e-09, No Iterations 3
DILUPBiCGStab:  Solving for H2O, Initial residual = 0.0021931, Final residual = 2.6176e-09, No Iterations 3
DILUPBiCGStab:  Solving for CH4, Initial residual = 0, Final residual = 0, No Iterations 0
DILUPBiCGStab:  Solving for CO2, Initial residual = 0.0021931, Final residual = 2.61761e-09, No Iterations 3
DILUPBiCGStab:  Solving for h, Initial residual = 0.00242392, Final residual = 2.77177e-09, No Iterations 3
min/max(T) = 299.691, 1044.98
GAMGPCG:  Solving for p_rgh, Initial residual = 0.0178616, Final residual = 1.65445e-07, No Iterations 5
diagonal:  Solving for rho, Initial residual = 0, Final residual = 0, No Iterations 0
time step continuity errors : sum local = 7.38187e-09, global = 2.3243e-10, cumulative = -2.3864e-07
GAMGPCG:  Solving for p_rgh, Initial residual = 0.00266534, Final residual = 2.68041e-07, No Iterations 4
diagonal:  Solving for rho, Initial residual = 0, Final residual = 0, No Iterations 0
time step continuity errors : sum local = 1.1662e-08, global = 1.81407e-09, cumulative = -2.36826e-07
DILUPBiCGStab:  Solving for omega, Initial residual = 7.5817e-05, Final residual = 1.53746e-09, No Iterations 2
DILUPBiCGStab:  Solving for k, Initial residual = 0.00355028, Final residual = 2.7006e-09, No Iterations 3

ExecutionTime = 4.24 s  ClockTime = 4 s

    Overall     = 0.00128995, 0.01
Time = 281

diagonal:  Solving for rho, Initial residual = 0, Final residual = 0, No Iterations 0

Execution time for mesh.update() = 0 s

DILUPBiCGStab:  Solving for Ux, Initial residual = 0.00359314, Final residual = 5.17978e-09, No Iterations 3
DILUPBiCGStab:  Solving for Uy, Initial residual = 0.00825704, Final residual = 1.79995e-09, No Iterations 3
DILUPBiCGStab:  Solving for O2, Initial residual = 0.0021878, Final residual = 2.6536e-09, No Iterations 3
DILUPBiCGStab:  Solving for H2O, Initial residual = 0.0021882, Final residual = 2.65292e-09, No Iterations 3
DILUPBiCGStab:  Solving for CH4, Initial residual = 0, Final residual = 0, No Iterations 0
DILUPBiCGStab:  Solving for CO2, Initial residual = 0.0021882, Final residual = 2.65292e-09, No Iterations 3
DILUPBiCGStab:  Solving for h, Initial residual = 0.00242115, Final residual = 2.7758e-09, No Iterations 3
min/max(T) = 299.666, 1044.98
GAMGPCG:  Solving for p_rgh, Initial residual = 0.0176566, Final residual = 1.70106e-07, No Iterations 5
diagonal:  Solving for rho, Initial residual = 0, Final residual = 0, No Iterations 0
time step continuity errors : sum local = 7.55452e-09, global = 2.21403e-10, cumulative = -2.36604e-07
GAMGPCG:  Solving for p_rgh, Initial residual = 0.00268042, Final residual = 2.67622e-07, No Iterations 4
diagonal:  Solving for rho, Initial residual = 0, Final residual = 0, No Iterations 0
time step continuity errors : sum local = 1.16125e-08, global = 1.58136e-09, cumulative = -2.35023e-07
DILUPBiCGStab:  Solving for omega, Initial residual = 7.53298e-05, Final residual = 1.61494e-09, No Iterations 2
DILUPBiCGStab:  Solving for k, Initial residual = 0.00356822, Final residual = 2.36873e-09, No Iterations 3

ExecutionTime = 4.36 s  ClockTime = 4 s

    Overall     = 0.00129414, 0.01
Time = 282

diagonal:  Solving for rho, Initial residual = 0, Final residual = 0, No Iterations 0

Execution time for mesh.update() = 0 s

DILUPBiCGStab:  Solving for Ux, Initial residual = 0.00357815, Final residual = 5.06081e-09, No Iterations 3
DILUPBiCGStab:  Solving for Uy, Initial residual = 0.00826244, Final residual = 1.60426e-09, No Iterations 3
DILUPBiCGStab:  Solving for O2, Initial residual = 0.00218443, Final residual = 2.7697e-09, No Iterations 3
DILUPBiCGStab:  Solving for H2O, Initial residual = 0.00218455, Final residual = 2.77027e-09, No Iterations 3
DILUPBiCGStab:  Solving for CH4, Initial residual = 0, Final residual = 0, No Iterations 0
DILUPBiCGStab:  Solving for CO2, Initial residual = 0.00218455, Final residual = 2.77027e-09, No Iterations 3
DILUPBiCGStab:  Solving for h, Initial residual = 0.00241766, Final residual = 2.76856e-09, No Iterations 3
min/max(T) = 299.664, 1044.98
GAMGPCG:  Solving for p_rgh, Initial residual = 0.0177294, Final residual = 1.85971e-07, No Iterations 5
diagonal:  Solving for rho, Initial residual = 0, Final residual = 0, No Iterations 0
time step continuity errors : sum local = 8.21304e-09, global = 1.73163e-10, cumulative = -2.3485e-07
GAMGPCG:  Solving for p_rgh, Initial residual = 0.00268703, Final residual = 2.67436e-07, No Iterations 4
diagonal:  Solving for rho, Initial residual = 0, Final residual = 0, No Iterations 0
time step continuity errors : sum local = 1.16763e-08, global = 1.40415e-09, cumulative = -2.33446e-07
DILUPBiCGStab:  Solving for omega, Initial residual = 7.45325e-05, Final residual = 1.60496e-09, No Iterations 2
DILUPBiCGStab:  Solving for k, Initial residual = 0.0035817, Final residual = 2.29959e-09, No Iterations 3

ExecutionTime = 4.48 s  ClockTime = 4 s

    Overall     = 0.00129273, 0.01
Time = 283

diagonal:  Solving for rho, Initial residual = 0, Final residual = 0, No Iterations 0

Execution time for mesh.update() = 0 s

DILUPBiCGStab:  Solving for Ux, Initial residual = 0.00357927, Final residual = 5.06953e-09, No Iterations 3
DILUPBiCGStab:  Solving for Uy, Initial residual = 0.00827635, Final residual = 1.59558e-09, No Iterations 3
DILUPBiCGStab:  Solving for O2, Initial residual = 0.0021784, Final residual = 2.82014e-09, No Iterations 3
DILUPBiCGStab:  Solving for H2O, Initial residual = 0.00217879, Final residual = 2.81966e-09, No Iterations 3
DILUPBiCGStab:  Solving for CH4, Initial residual = 0, Final residual = 0, No Iterations 0
DILUPBiCGStab:  Solving for CO2, Initial residual = 0.00217879, Final residual = 2.81966e-09, No Iterations 3
DILUPBiCGStab:  Solving for h, Initial residual = 0.0024135, Final residual = 2.71836e-09, No Iterations 3
min/max(T) = 299.638, 1044.98
GAMGPCG:  Solving for p_rgh, Initial residual = 0.0176293, Final residual = 2.34866e-07, No Iterations 5
diagonal:  Solving for rho, Initial residual = 0, Final residual = 0, No Iterations 0
time step continuity errors : sum local = 1.03654e-08, global = 6.83931e-11, cumulative = -2.33377e-07
GAMGPCG:  Solving for p_rgh, Initial residual = 0.00266069, Final residual = 2.73717e-07, No Iterations 4
diagonal:  Solving for rho, Initial residual = 0, Final residual = 0, No Iterations 0
time step continuity errors : sum local = 1.19302e-08, global = 1.20525e-09, cumulative = -2.32172e-07
DILUPBiCGStab:  Solving for omega, Initial residual = 7.37518e-05, Final residual = 1.58667e-09, No Iterations 2
DILUPBiCGStab:  Solving for k, Initial residual = 0.0035969, Final residual = 2.24455e-09, No Iterations 3

ExecutionTime = 4.59 s  ClockTime = 4 s

    Overall     = 0.0012971, 0.01
Time = 284

diagonal:  Solving for rho, Initial residual = 0, Final residual = 0, No Iterations 0

Execution time for mesh.update() = 0 s

DILUPBiCGStab:  Solving for Ux, Initial residual = 0.00357749, Final residual = 4.8046e-09, No Iterations 3
DILUPBiCGStab:  Solving for Uy, Initial residual = 0.00829377, Final residual = 1.649e-09, No Iterations 3
DILUPBiCGStab:  Solving for O2, Initial residual = 0.00217538, Final residual = 2.7321e-09, No Iterations 3
DILUPBiCGStab:  Solving for H2O, Initial residual = 0.00217551, Final residual = 2.73248e-09, No Iterations 3
DILUPBiCGStab:  Solving for CH4, Initial residual = 0, Final residual = 0, No Iterations 0
DILUPBiCGStab:  Solving for CO2, Initial residual = 0.00217551, Final residual = 2.73248e-09, No Iterations 3
DILUPBiCGStab:  Solving for h, Initial residual = 0.0024115, Final residual = 2.68165e-09, No Iterations 3
min/max(T) = 299.633, 1044.98
GAMGPCG:  Solving for p_rgh, Initial residual = 0.0177083, Final residual = 2.4683e-07, No Iterations 5
diagonal:  Solving for rho, Initial residual = 0, Final residual = 0, No Iterations 0
time step continuity errors : sum local = 1.08972e-08, global = 8.9345e-12, cumulative = -2.32163e-07
GAMGPCG:  Solving for p_rgh, Initial residual = 0.00268764, Final residual = 2.75442e-07, No Iterations 4
diagonal:  Solving for rho, Initial residual = 0, Final residual = 0, No Iterations 0
time step continuity errors : sum local = 1.20298e-08, global = 1.07027e-09, cumulative = -2.31093e-07
DILUPBiCGStab:  Solving for omega, Initial residual = 7.3175e-05, Final residual = 1.57776e-09, No Iterations 2
DILUPBiCGStab:  Solving for k, Initial residual = 0.0036102, Final residual = 2.1782e-09, No Iterations 3

ExecutionTime = 4.71 s  ClockTime = 4 s

    Overall     = 0.00129567, 0.01
Time = 285

diagonal:  Solving for rho, Initial residual = 0, Final residual = 0, No Iterations 0

Execution time for mesh.update() = 0 s

DILUPBiCGStab:  Solving for Ux, Initial residual = 0.00356758, Final residual = 4.88903e-09, No Iterations 3
DILUPBiCGStab:  Solving for Uy, Initial residual = 0.00829006, Final residual = 1.77333e-09, No Iterations 3
DILUPBiCGStab:  Solving for O2, Initial residual = 0.00216897, Final residual = 2.6924e-09, No Iterations 3
DILUPBiCGStab:  Solving for H2O, Initial residual = 0.00216939, Final residual = 2.69196e-09, No Iterations 3
DILUPBiCGStab:  Solving for CH4, Initial residual = 0, Final residual = 0, No Iterations 0
DILUPBiCGStab:  Solving for CO2, Initial residual = 0.00216939, Final residual = 2.69196e-09, No Iterations 3
DILUPBiCGStab:  Solving for h, Initial residual = 0.00240616, Final residual = 2.55039e-09, No Iterations 3
min/max(T) = 299.606, 1044.98
GAMGPCG:  Solving for p_rgh, Initial residual = 0.0174214, Final residual = 2.41857e-07, No Iterations 5
diagonal:  Solving for rho, Initial residual = 0, Final residual = 0, No Iterations 0
time step continuity errors : sum local = 1.07183e-08, global = -3.30962e-11, cumulative = -2.31126e-07
GAMGPCG:  Solving for p_rgh, Initial residual = 0.00266316, Final residual = 2.849e-07, No Iterations 4
diagonal:  Solving for rho, Initial residual = 0, Final residual = 0, No Iterations 0
time step continuity errors : sum local = 1.23565e-08, global = 8.9665e-10, cumulative = -2.30229e-07
DILUPBiCGStab:  Solving for omega, Initial residual = 7.28117e-05, Final residual = 1.56568e-09, No Iterations 2
DILUPBiCGStab:  Solving for k, Initial residual = 0.00363075, Final residual = 2.20616e-09, No Iterations 3

ExecutionTime = 4.83 s  ClockTime = 5 s

    Overall     = 0.00130011, 0.01
Time = 286

diagonal:  Solving for rho, Initial residual = 0, Final residual = 0, No Iterations 0

Execution time for mesh.update() = 0 s

DILUPBiCGStab:  Solving for Ux, Initial residual = 0.00356566, Final residual = 5.10593e-09, No Iterations 3
DILUPBiCGStab:  Solving for Uy, Initial residual = 0.00830654, Final residual = 1.77168e-09, No Iterations 3
DILUPBiCGStab:  Solving for O2, Initial residual = 0.00216805, Final residual = 2.51731e-09, No Iterations 3
DILUPBiCGStab:  Solving for H2O, Initial residual = 0.0021682, Final residual = 2.51784e-09, No Iterations 3
DILUPBiCGStab:  Solving for CH4, Initial residual = 0, Final residual = 0, No Iterations 0
DILUPBiCGStab:  Solving for CO2, Initial residual = 0.0021682, Final residual = 2.51784e-09, No Iterations 3
DILUPBiCGStab:  Solving for h, Initial residual = 0.00240785, Final residual = 2.30865e-09, No Iterations 3
min/max(T) = 299.6, 1044.98
GAMGPCG:  Solving for p_rgh, Initial residual = 0.017664, Final residual = 2.26537e-07, No Iterations 5
diagonal:  Solving for rho, Initial residual = 0, Final residual = 0, No Iterations 0
time step continuity errors : sum local = 1.00341e-08, global = -2.73809e-11, cumulative = -2.30257e-07
GAMGPCG:  Solving for p_rgh, Initial residual = 0.00269295, Final residual = 2.87827e-07, No Iterations 4
diagonal:  Solving for rho, Initial residual = 0, Final residual = 0, No Iterations 0
time step continuity errors : sum local = 1.25082e-08, global = 7.58793e-10, cumulative = -2.29498e-07
DILUPBiCGStab:  Solving for omega, Initial residual = 7.20988e-05, Final residual = 1.52598e-09, No Iterations 2
DILUPBiCGStab:  Solving for k, Initial residual = 0.0036523, Final residual = 2.11897e-09, No Iterations 3

ExecutionTime = 4.95 s  ClockTime = 5 s

    Overall     = 0.00129854, 0.01
Time = 287

diagonal:  Solving for rho, Initial residual = 0, Final residual = 0, No Iterations 0

Execution time for mesh.update() = 0 s

DILUPBiCGStab:  Solving for Ux, Initial residual = 0.00355222, Final residual = 4.84174e-09, No Iterations 3
DILUPBiCGStab:  Solving for Uy, Initial residual = 0.00832523, Final residual = 1.86074e-09, No Iterations 3
DILUPBiCGStab:  Solving for O2, Initial residual = 0.00216248, Final residual = 2.38339e-09, No Iterations 3
DILUPBiCGStab:  Solving for H2O, Initial residual = 0.00216293, Final residual = 2.38295e-09, No Iterations 3
DILUPBiCGStab:  Solving for CH4, Initial residual = 0, Final residual = 0, No Iterations 0
DILUPBiCGStab:  Solving for CO2, Initial residual = 0.00216293, Final residual = 2.38296e-09, No Iterations 3
DILUPBiCGStab:  Solving for h, Initial residual = 0.00240268, Final residual = 2.1558e-09, No Iterations 3
min/max(T) = 299.572, 1044.98
GAMGPCG:  Solving for p_rgh, Initial residual = 0.0173529, Final residual = 2.38184e-07, No Iterations 5
diagonal:  Solving for rho, Initial residual = 0, Final residual = 0, No Iterations 0
time step continuity errors : sum local = 1.05555e-08, global = -1.38654e-10, cumulative = -2.29636e-07
GAMGPCG:  Solving for p_rgh, Initial residual = 0.00264276, Final residual = 2.99091e-07, No Iterations 4
diagonal:  Solving for rho, Initial residual = 0, Final residual = 0, No Iterations 0
time step continuity errors : sum local = 1.29746e-08, global = 7.07443e-10, cumulative = -2.28929e-07
DILUPBiCGStab:  Solving for omega, Initial residual = 7.2042e-05, Final residual = 1.46891e-09, No Iterations 2
DILUPBiCGStab:  Solving for k, Initial residual = 0.00368073, Final residual = 2.17785e-09, No Iterations 3

ExecutionTime = 5.07 s  ClockTime = 5 s

    Overall     = 0.00130286, 0.01
Time = 288

diagonal:  Solving for rho, Initial residual = 0, Final residual = 0, No Iterations 0

Execution time for mesh.update() = 0 s

DILUPBiCGStab:  Solving for Ux, Initial residual = 0.00354742, Final residual = 4.95326e-09, No Iterations 3
DILUPBiCGStab:  Solving for Uy, Initial residual = 0.00833198, Final residual = 1.76404e-09, No Iterations 3
DILUPBiCGStab:  Solving for O2, Initial residual = 0.00216401, Final residual = 2.24461e-09, No Iterations 3
DILUPBiCGStab:  Solving for H2O, Initial residual = 0.00216417, Final residual = 2.24542e-09, No Iterations 3
DILUPBiCGStab:  Solving for CH4, Initial residual = 0, Final residual = 0, No Iterations 0
DILUPBiCGStab:  Solving for CO2, Initial residual = 0.00216417, Final residual = 2.24542e-09, No Iterations 3
DILUPBiCGStab:  Solving for h, Initial residual = 0.00240524, Final residual = 2.03425e-09, No Iterations 3
min/max(T) = 299.565, 1044.98
GAMGPCG:  Solving for p_rgh, Initial residual = 0.0177913, Final residual = 2.49566e-07, No Iterations 5
diagonal:  Solving for rho, Initial residual = 0, Final residual = 0, No Iterations 0
time step continuity errors : sum local = 1.10384e-08, global = -1.62824e-10, cumulative = -2.29092e-07
GAMGPCG:  Solving for p_rgh, Initial residual = 0.00267318, Final residual = 3.21459e-07, No Iterations 4
diagonal:  Solving for rho, Initial residual = 0, Final residual = 0, No Iterations 0
time step continuity errors : sum local = 1.39664e-08, global = 5.67766e-10, cumulative = -2.28524e-07
DILUPBiCGStab:  Solving for omega, Initial residual = 7.22949e-05, Final residual = 1.4236e-09, No Iterations 2
DILUPBiCGStab:  Solving for k, Initial residual = 0.00370349, Final residual = 2.06082e-09, No Iterations 3

ExecutionTime = 5.19 s  ClockTime = 5 s

    Overall     = 0.00130114, 0.01
Time = 289

diagonal:  Solving for rho, Initial residual = 0, Final residual = 0, No Iterations 0

Execution time for mesh.update() = 0 s

DILUPBiCGStab:  Solving for Ux, Initial residual = 0.00355729, Final residual = 4.91368e-09, No Iterations 3
DILUPBiCGStab:  Solving for Uy, Initial residual = 0.00835544, Final residual = 1.677e-09, No Iterations 3
DILUPBiCGStab:  Solving for O2, Initial residual = 0.00215928, Final residual = 2.22586e-09, No Iterations 3
DILUPBiCGStab:  Solving for H2O, Initial residual = 0.00215976, Final residual = 2.22548e-09, No Iterations 3
DILUPBiCGStab:  Solving for CH4, Initial residual = 0, Final residual = 0, No Iterations 0
DILUPBiCGStab:  Solving for CO2, Initial residual = 0.00215976, Final residual = 2.22548e-09, No Iterations 3
DILUPBiCGStab:  Solving for h, Initial residual = 0.00239883, Final residual = 2.04818e-09, No Iterations 3
min/max(T) = 299.537, 1044.98
GAMGPCG:  Solving for p_rgh, Initial residual = 0.0172532, Final residual = 2.40359e-07, No Iterations 5
diagonal:  Solving for rho, Initial residual = 0, Final residual = 0, No Iterations 0
time step continuity errors : sum local = 1.06909e-08, global = -2.23811e-10, cumulative = -2.28748e-07
GAMGPCG:  Solving for p_rgh, Initial residual = 0.00264191, Final residual = 3.27238e-07, No Iterations 4
diagonal:  Solving for rho, Initial residual = 0, Final residual = 0, No Iterations 0
time step continuity errors : sum local = 1.42054e-08, global = 6.18689e-10, cumulative = -2.28129e-07
DILUPBiCGStab:  Solving for omega, Initial residual = 7.25975e-05, Final residual = 1.33513e-09, No Iterations 2
DILUPBiCGStab:  Solving for k, Initial residual = 0.00372483, Final residual = 2.02825e-09, No Iterations 3

ExecutionTime = 5.31 s  ClockTime = 5 s

    Overall     = 0.00130522, 0.01
Time = 290

diagonal:  Solving for rho, Initial residual = 0, Final residual = 0, No Iterations 0

Execution time for mesh.update() = 0 s

DILUPBiCGStab:  Solving for Ux, Initial residual = 0.00355043, Final residual = 5.2736e-09, No Iterations 3
DILUPBiCGStab:  Solving for Uy, Initial residual = 0.00836124, Final residual = 1.58414e-09, No Iterations 3
GAMGPCG:  Solving for G, Initial residual = 0.100209, Final residual = 3.9499e-05, No Iterations 5
DILUPBiCGStab:  Solving for O2, Initial residual = 0.00215606, Final residual = 2.14325e-09, No Iterations 3
DILUPBiCGStab:  Solving for H2O, Initial residual = 0.0021562, Final residual = 2.14359e-09, No Iterations 3
DILUPBiCGStab:  Solving for CH4, Initial residual = 0, Final residual = 0, No Iterations 0
DILUPBiCGStab:  Solving for CO2, Initial residual = 0.0021562, Final residual = 2.14359e-09, No Iterations 3
DILUPBiCGStab:  Solving for h, Initial residual = 0.00239803, Final residual = 2.02557e-09, No Iterations 3
min/max(T) = 299.529, 1044.98
GAMGPCG:  Solving for p_rgh, Initial residual = 0.0173632, Final residual = 2.60462e-07, No Iterations 5
diagonal:  Solving for rho, Initial residual = 0, Final residual = 0, No Iterations 0
time step continuity errors : sum local = 1.15452e-08, global = -2.07589e-10, cumulative = -2.28337e-07
GAMGPCG:  Solving for p_rgh, Initial residual = 0.00267481, Final residual = 3.48264e-07, No Iterations 4
diagonal:  Solving for rho, Initial residual = 0, Final residual = 0, No Iterations 0
time step continuity errors : sum local = 1.5164e-08, global = 5.26364e-10, cumulative = -2.2781e-07
DILUPBiCGStab:  Solving for omega, Initial residual = 7.25581e-05, Final residual = 1.28117e-09, No Iterations 2
DILUPBiCGStab:  Solving for k, Initial residual = 0.00374537, Final residual = 2.12361e-09, No Iterations 3

ExecutionTime = 5.56 s  ClockTime = 5 s

    Overall     = 0.00130321, 0.01
Time = 291

diagonal:  Solving for rho, Initial residual = 0, Final residual = 0, No Iterations 0

Execution time for mesh.update() = 0 s

DILUPBiCGStab:  Solving for Ux, Initial residual = 0.00356159, Final residual = 5.19201e-09, No Iterations 3
DILUPBiCGStab:  Solving for Uy, Initial residual = 0.0083681, Final residual = 1.39828e-09, No Iterations 3
DILUPBiCGStab:  Solving for O2, Initial residual = 0.00215251, Final residual = 2.23135e-09, No Iterations 3
DILUPBiCGStab:  Solving for H2O, Initial residual = 0.00215302, Final residual = 2.23124e-09, No Iterations 3
DILUPBiCGStab:  Solving for CH4, Initial residual = 0, Final residual = 0, No Iterations 0
DILUPBiCGStab:  Solving for CO2, Initial residual = 0.00215302, Final residual = 2.23124e-09, No Iterations 3
DILUPBiCGStab:  Solving for h, Initial residual = 0.00239477, Final residual = 2.11805e-09, No Iterations 3
min/max(T) = 299.501, 1044.98
GAMGPCG:  Solving for p_rgh, Initial residual = 0.0171779, Final residual = 2.66311e-07, No Iterations 5
diagonal:  Solving for rho, Initial residual = 0, Final residual = 0, No Iterations 0
time step continuity errors : sum local = 1.18395e-08, global = -2.85271e-10, cumulative = -2.28096e-07
GAMGPCG:  Solving for p_rgh, Initial residual = 0.00267083, Final residual = 3.59955e-07, No Iterations 4
diagonal:  Solving for rho, Initial residual = 0, Final residual = 0, No Iterations 0
time step continuity errors : sum local = 1.56778e-08, global = 5.44003e-10, cumulative = -2.27552e-07
DILUPBiCGStab:  Solving for omega, Initial residual = 7.2165e-05, Final residual = 1.26889e-09, No Iterations 2
DILUPBiCGStab:  Solving for k, Initial residual = 0.00376834, Final residual = 2.00894e-09, No Iterations 3

ExecutionTime = 5.68 s  ClockTime = 5 s

    Overall     = 0.00130728, 0.01
Time = 292

diagonal:  Solving for rho, Initial residual = 0, Final residual = 0, No Iterations 0

Execution time for mesh.update() = 0 s

DILUPBiCGStab:  Solving for Ux, Initial residual = 0.00357145, Final residual = 5.23929e-09, No Iterations 3
DILUPBiCGStab:  Solving for Uy, Initial residual = 0.00839763, Final residual = 1.30806e-09, No Iterations 3
DILUPBiCGStab:  Solving for O2, Initial residual = 0.00215059, Final residual = 2.22101e-09, No Iterations 3
DILUPBiCGStab:  Solving for H2O, Initial residual = 0.00215075, Final residual = 2.22127e-09, No Iterations 3
DILUPBiCGStab:  Solving for CH4, Initial residual = 0, Final residual = 0, No Iterations 0
DILUPBiCGStab:  Solving for CO2, Initial residual = 0.00215075, Final residual = 2.22127e-09, No Iterations 3
DILUPBiCGStab:  Solving for h, Initial residual = 0.00239359, Final residual = 2.11012e-09, No Iterations 3
min/max(T) = 299.493, 1044.98
GAMGPCG:  Solving for p_rgh, Initial residual = 0.0170791, Final residual = 2.64473e-07, No Iterations 5
diagonal:  Solving for rho, Initial residual = 0, Final residual = 0, No Iterations 0
time step continuity errors : sum local = 1.17231e-08, global = -2.11221e-10, cumulative = -2.27763e-07
GAMGPCG:  Solving for p_rgh, Initial residual = 0.00265746, Final residual = 3.56863e-07, No Iterations 4
diagonal:  Solving for rho, Initial residual = 0, Final residual = 0, No Iterations 0
time step continuity errors : sum local = 1.56261e-08, global = 4.49325e-10, cumulative = -2.27314e-07
DILUPBiCGStab:  Solving for omega, Initial residual = 7.24381e-05, Final residual = 1.24299e-09, No Iterations 2
DILUPBiCGStab:  Solving for k, Initial residual = 0.00379187, Final residual = 2.12021e-09, No Iterations 3

[...]

Execution time for mesh.update() = 0 s

DILUPBiCGStab:  Solving for Ux, Initial residual = 0.00404906, Final residual = 5.49671e-09, No Iterations 3
DILUPBiCGStab:  Solving for Uy, Initial residual = 0.00391552, Final residual = 4.42391e-09, No Iterations 3
GAMGPCG:  Solving for G, Initial residual = 0.235229, Final residual = 5.50402e-05, No Iterations 5
DILUPBiCGStab:  Solving for O2, Initial residual = 0.00184689, Final residual = 3.2039e-09, No Iterations 3
DILUPBiCGStab:  Solving for H2O, Initial residual = 0.00184701, Final residual = 3.20387e-09, No Iterations 3
DILUPBiCGStab:  Solving for CH4, Initial residual = 0, Final residual = 0, No Iterations 0
DILUPBiCGStab:  Solving for CO2, Initial residual = 0.00184701, Final residual = 3.20387e-09, No Iterations 3
DILUPBiCGStab:  Solving for h, Initial residual = 0.00209274, Final residual = 3.22116e-09, No Iterations 3
min/max(T) = 299.866, 1044.98
GAMGPCG:  Solving for p_rgh, Initial residual = 0.0225042, Final residual = 8.17937e-07, No Iterations 4
diagonal:  Solving for rho, Initial residual = 0, Final residual = 0, No Iterations 0
time step continuity errors : sum local = 2.46908e-08, global = -2.58433e-09, cumulative = 7.90361e-07
GAMGPCG:  Solving for p_rgh, Initial residual = 0.00335717, Final residual = 3.32815e-07, No Iterations 4
diagonal:  Solving for rho, Initial residual = 0, Final residual = 0, No Iterations 0
time step continuity errors : sum local = 9.69736e-09, global = 1.04227e-09, cumulative = 7.91403e-07
DILUPBiCGStab:  Solving for omega, Initial residual = 7.93557e-05, Final residual = 1.88413e-09, No Iterations 2
DILUPBiCGStab:  Solving for k, Initial residual = 0.00355434, Final residual = 5.53403e-09, No Iterations 3

ExecutionTime = 288.91 s  ClockTime = 289 s

    Overall     = 0.00118654, 0.01
Time = 2491

diagonal:  Solving for rho, Initial residual = 0, Final residual = 0, No Iterations 0

Execution time for mesh.update() = 0 s

DILUPBiCGStab:  Solving for Ux, Initial residual = 0.00402341, Final residual = 5.90727e-09, No Iterations 3
DILUPBiCGStab:  Solving for Uy, Initial residual = 0.00389043, Final residual = 4.37057e-09, No Iterations 3
DILUPBiCGStab:  Solving for O2, Initial residual = 0.00183149, Final residual = 3.33707e-09, No Iterations 3
DILUPBiCGStab:  Solving for H2O, Initial residual = 0.0018316, Final residual = 3.337e-09, No Iterations 3
DILUPBiCGStab:  Solving for CH4, Initial residual = 0, Final residual = 0, No Iterations 0
DILUPBiCGStab:  Solving for CO2, Initial residual = 0.0018316, Final residual = 3.337e-09, No Iterations 3
DILUPBiCGStab:  Solving for h, Initial residual = 0.00207446, Final residual = 3.31242e-09, No Iterations 3
min/max(T) = 299.884, 1044.98
GAMGPCG:  Solving for p_rgh, Initial residual = 0.0212125, Final residual = 7.28984e-07, No Iterations 4
diagonal:  Solving for rho, Initial residual = 0, Final residual = 0, No Iterations 0
time step continuity errors : sum local = 2.23654e-08, global = -1.86637e-09, cumulative = 7.89537e-07
GAMGPCG:  Solving for p_rgh, Initial residual = 0.00334918, Final residual = 2.61602e-07, No Iterations 4
diagonal:  Solving for rho, Initial residual = 0, Final residual = 0, No Iterations 0
time step continuity errors : sum local = 7.90094e-09, global = 1.11191e-09, cumulative = 7.90649e-07
DILUPBiCGStab:  Solving for omega, Initial residual = 7.81303e-05, Final residual = 1.83801e-09, No Iterations 2
DILUPBiCGStab:  Solving for k, Initial residual = 0.0035061, Final residual = 3.7635e-09, No Iterations 3

ExecutionTime = 289.03 s  ClockTime = 289 s

    Overall     = 0.00119275, 0.01
Time = 2492

diagonal:  Solving for rho, Initial residual = 0, Final residual = 0, No Iterations 0

Execution time for mesh.update() = 0 s

DILUPBiCGStab:  Solving for Ux, Initial residual = 0.00399611, Final residual = 6.26772e-09, No Iterations 3
DILUPBiCGStab:  Solving for Uy, Initial residual = 0.00382265, Final residual = 4.43404e-09, No Iterations 3
DILUPBiCGStab:  Solving for O2, Initial residual = 0.00181798, Final residual = 3.25347e-09, No Iterations 3
DILUPBiCGStab:  Solving for H2O, Initial residual = 0.00181807, Final residual = 3.25344e-09, No Iterations 3
DILUPBiCGStab:  Solving for CH4, Initial residual = 0, Final residual = 0, No Iterations 0
DILUPBiCGStab:  Solving for CO2, Initial residual = 0.00181807, Final residual = 3.25344e-09, No Iterations 3
DILUPBiCGStab:  Solving for h, Initial residual = 0.0020643, Final residual = 3.39647e-09, No Iterations 3
min/max(T) = 299.895, 1044.98
GAMGPCG:  Solving for p_rgh, Initial residual = 0.0210711, Final residual = 6.90793e-07, No Iterations 4
diagonal:  Solving for rho, Initial residual = 0, Final residual = 0, No Iterations 0
time step continuity errors : sum local = 2.07443e-08, global = -2.51771e-09, cumulative = 7.88131e-07
GAMGPCG:  Solving for p_rgh, Initial residual = 0.00326009, Final residual = 2.76159e-07, No Iterations 4
diagonal:  Solving for rho, Initial residual = 0, Final residual = 0, No Iterations 0
time step continuity errors : sum local = 8.23106e-09, global = 1.2694e-09, cumulative = 7.89401e-07
DILUPBiCGStab:  Solving for omega, Initial residual = 7.72506e-05, Final residual = 1.76832e-09, No Iterations 2
DILUPBiCGStab:  Solving for k, Initial residual = 0.00350352, Final residual = 3.99343e-09, No Iterations 3

ExecutionTime = 289.14 s  ClockTime = 289 s

    Overall     = 0.00119456, 0.01
Time = 2493

diagonal:  Solving for rho, Initial residual = 0, Final residual = 0, No Iterations 0

Execution time for mesh.update() = 0 s

DILUPBiCGStab:  Solving for Ux, Initial residual = 0.0040054, Final residual = 6.86917e-09, No Iterations 3
DILUPBiCGStab:  Solving for Uy, Initial residual = 0.00382411, Final residual = 4.8525e-09, No Iterations 3
DILUPBiCGStab:  Solving for O2, Initial residual = 0.00180848, Final residual = 3.12734e-09, No Iterations 3
DILUPBiCGStab:  Solving for H2O, Initial residual = 0.00180856, Final residual = 3.12731e-09, No Iterations 3
DILUPBiCGStab:  Solving for CH4, Initial residual = 0, Final residual = 0, No Iterations 0
DILUPBiCGStab:  Solving for CO2, Initial residual = 0.00180856, Final residual = 3.12731e-09, No Iterations 3
DILUPBiCGStab:  Solving for h, Initial residual = 0.00205458, Final residual = 3.17874e-09, No Iterations 3
min/max(T) = 299.904, 1044.98
GAMGPCG:  Solving for p_rgh, Initial residual = 0.0201869, Final residual = 8.02491e-07, No Iterations 4
diagonal:  Solving for rho, Initial residual = 0, Final residual = 0, No Iterations 0
time step continuity errors : sum local = 2.39172e-08, global = -2.7833e-09, cumulative = 7.86617e-07
GAMGPCG:  Solving for p_rgh, Initial residual = 0.00331081, Final residual = 2.80158e-07, No Iterations 4
diagonal:  Solving for rho, Initial residual = 0, Final residual = 0, No Iterations 0
time step continuity errors : sum local = 8.32336e-09, global = 1.58634e-09, cumulative = 7.88204e-07
DILUPBiCGStab:  Solving for omega, Initial residual = 7.69361e-05, Final residual = 1.74624e-09, No Iterations 2
DILUPBiCGStab:  Solving for k, Initial residual = 0.00348611, Final residual = 4.01856e-09, No Iterations 3

ExecutionTime = 289.25 s  ClockTime = 289 s

    Overall     = 0.00120302, 0.01
Time = 2494

diagonal:  Solving for rho, Initial residual = 0, Final residual = 0, No Iterations 0

Execution time for mesh.update() = 0 s

DILUPBiCGStab:  Solving for Ux, Initial residual = 0.0039961, Final residual = 7.34097e-09, No Iterations 3
DILUPBiCGStab:  Solving for Uy, Initial residual = 0.00378426, Final residual = 5.35982e-09, No Iterations 3
DILUPBiCGStab:  Solving for O2, Initial residual = 0.00179105, Final residual = 3.10102e-09, No Iterations 3
DILUPBiCGStab:  Solving for H2O, Initial residual = 0.00179115, Final residual = 3.10101e-09, No Iterations 3
DILUPBiCGStab:  Solving for CH4, Initial residual = 0, Final residual = 0, No Iterations 0
DILUPBiCGStab:  Solving for CO2, Initial residual = 0.00179115, Final residual = 3.10101e-09, No Iterations 3
DILUPBiCGStab:  Solving for h, Initial residual = 0.0020359, Final residual = 3.05909e-09, No Iterations 3
min/max(T) = 299.909, 1044.98
GAMGPCG:  Solving for p_rgh, Initial residual = 0.0206431, Final residual = 7.86578e-07, No Iterations 4
diagonal:  Solving for rho, Initial residual = 0, Final residual = 0, No Iterations 0
time step continuity errors : sum local = 2.35895e-08, global = -1.49696e-09, cumulative = 7.86707e-07
GAMGPCG:  Solving for p_rgh, Initial residual = 0.00329011, Final residual = 2.6486e-07, No Iterations 4
diagonal:  Solving for rho, Initial residual = 0, Final residual = 0, No Iterations 0
time step continuity errors : sum local = 7.74348e-09, global = 1.15045e-09, cumulative = 7.87857e-07
DILUPBiCGStab:  Solving for omega, Initial residual = 7.73934e-05, Final residual = 1.78352e-09, No Iterations 2
DILUPBiCGStab:  Solving for k, Initial residual = 0.00352843, Final residual = 3.85783e-09, No Iterations 3

ExecutionTime = 289.37 s  ClockTime = 289 s

    Overall     = 0.00120736, 0.01
Time = 2495

diagonal:  Solving for rho, Initial residual = 0, Final residual = 0, No Iterations 0

Execution time for mesh.update() = 0 s

DILUPBiCGStab:  Solving for Ux, Initial residual = 0.00400474, Final residual = 7.64858e-09, No Iterations 3
DILUPBiCGStab:  Solving for Uy, Initial residual = 0.00381313, Final residual = 5.68985e-09, No Iterations 3
DILUPBiCGStab:  Solving for O2, Initial residual = 0.0017816, Final residual = 2.99616e-09, No Iterations 3
DILUPBiCGStab:  Solving for H2O, Initial residual = 0.00178173, Final residual = 2.99613e-09, No Iterations 3
DILUPBiCGStab:  Solving for CH4, Initial residual = 0, Final residual = 0, No Iterations 0
DILUPBiCGStab:  Solving for CO2, Initial residual = 0.00178173, Final residual = 2.99613e-09, No Iterations 3
DILUPBiCGStab:  Solving for h, Initial residual = 0.00202744, Final residual = 2.9361e-09, No Iterations 3
min/max(T) = 299.891, 1044.98
GAMGPCG:  Solving for p_rgh, Initial residual = 0.0204282, Final residual = 7.80359e-07, No Iterations 4
diagonal:  Solving for rho, Initial residual = 0, Final residual = 0, No Iterations 0
time step continuity errors : sum local = 2.34018e-08, global = -7.99167e-10, cumulative = 7.87058e-07
GAMGPCG:  Solving for p_rgh, Initial residual = 0.00336701, Final residual = 2.63719e-07, No Iterations 4
diagonal:  Solving for rho, Initial residual = 0, Final residual = 0, No Iterations 0
time step continuity errors : sum local = 7.88127e-09, global = 1.45783e-09, cumulative = 7.88516e-07
DILUPBiCGStab:  Solving for omega, Initial residual = 7.49102e-05, Final residual = 1.63265e-09, No Iterations 2
DILUPBiCGStab:  Solving for k, Initial residual = 0.00346445, Final residual = 3.5049e-09, No Iterations 3

ExecutionTime = 289.49 s  ClockTime = 289 s

    Overall     = 0.00121689, 0.01
Time = 2496

diagonal:  Solving for rho, Initial residual = 0, Final residual = 0, No Iterations 0

Execution time for mesh.update() = 0 s

DILUPBiCGStab:  Solving for Ux, Initial residual = 0.00399335, Final residual = 8.17127e-09, No Iterations 3
DILUPBiCGStab:  Solving for Uy, Initial residual = 0.00376015, Final residual = 5.95716e-09, No Iterations 3
DILUPBiCGStab:  Solving for O2, Initial residual = 0.00177035, Final residual = 2.77087e-09, No Iterations 3
DILUPBiCGStab:  Solving for H2O, Initial residual = 0.00177041, Final residual = 2.77088e-09, No Iterations 3
DILUPBiCGStab:  Solving for CH4, Initial residual = 0, Final residual = 0, No Iterations 0
DILUPBiCGStab:  Solving for CO2, Initial residual = 0.00177041, Final residual = 2.77088e-09, No Iterations 3
DILUPBiCGStab:  Solving for h, Initial residual = 0.00201739, Final residual = 2.70995e-09, No Iterations 3
min/max(T) = 299.877, 1044.98
GAMGPCG:  Solving for p_rgh, Initial residual = 0.0208788, Final residual = 8.98006e-07, No Iterations 4
diagonal:  Solving for rho, Initial residual = 0, Final residual = 0, No Iterations 0
time step continuity errors : sum local = 2.68178e-08, global = 2.0602e-09, cumulative = 7.90576e-07
GAMGPCG:  Solving for p_rgh, Initial residual = 0.00328497, Final residual = 2.83974e-07, No Iterations 4
diagonal:  Solving for rho, Initial residual = 0, Final residual = 0, No Iterations 0
time step continuity errors : sum local = 8.31473e-09, global = 1.51048e-09, cumulative = 7.92087e-07
DILUPBiCGStab:  Solving for omega, Initial residual = 7.48135e-05, Final residual = 1.58035e-09, No Iterations 2
DILUPBiCGStab:  Solving for k, Initial residual = 0.00343418, Final residual = 3.65362e-09, No Iterations 3

ExecutionTime = 289.6 s  ClockTime = 289 s

    Overall     = 0.00122207, 0.01
Time = 2497

diagonal:  Solving for rho, Initial residual = 0, Final residual = 0, No Iterations 0

Execution time for mesh.update() = 0 s

DILUPBiCGStab:  Solving for Ux, Initial residual = 0.00398311, Final residual = 8.61154e-09, No Iterations 3
DILUPBiCGStab:  Solving for Uy, Initial residual = 0.00376944, Final residual = 6.19791e-09, No Iterations 3
DILUPBiCGStab:  Solving for O2, Initial residual = 0.00175736, Final residual = 2.85851e-09, No Iterations 3
DILUPBiCGStab:  Solving for H2O, Initial residual = 0.00175755, Final residual = 2.8585e-09, No Iterations 3
DILUPBiCGStab:  Solving for CH4, Initial residual = 0, Final residual = 0, No Iterations 0
DILUPBiCGStab:  Solving for CO2, Initial residual = 0.00175755, Final residual = 2.8585e-09, No Iterations 3
DILUPBiCGStab:  Solving for h, Initial residual = 0.00200328, Final residual = 2.7742e-09, No Iterations 3
min/max(T) = 299.873, 1044.98
GAMGPCG:  Solving for p_rgh, Initial residual = 0.0208093, Final residual = 8.85866e-07, No Iterations 4
diagonal:  Solving for rho, Initial residual = 0, Final residual = 0, No Iterations 0
time step continuity errors : sum local = 2.63186e-08, global = 2.07465e-09, cumulative = 7.94161e-07
GAMGPCG:  Solving for p_rgh, Initial residual = 0.00329606, Final residual = 3.19637e-07, No Iterations 4
diagonal:  Solving for rho, Initial residual = 0, Final residual = 0, No Iterations 0
time step continuity errors : sum local = 9.28322e-09, global = 1.67703e-09, cumulative = 7.95838e-07
DILUPBiCGStab:  Solving for omega, Initial residual = 7.37209e-05, Final residual = 1.61575e-09, No Iterations 2
DILUPBiCGStab:  Solving for k, Initial residual = 0.00340862, Final residual = 3.91851e-09, No Iterations 3

ExecutionTime = 289.72 s  ClockTime = 289 s

    Overall     = 0.00123166, 0.01
Time = 2498

diagonal:  Solving for rho, Initial residual = 0, Final residual = 0, No Iterations 0

Execution time for mesh.update() = 0 s

DILUPBiCGStab:  Solving for Ux, Initial residual = 0.00398404, Final residual = 6.34637e-09, No Iterations 3
DILUPBiCGStab:  Solving for Uy, Initial residual = 0.00375055, Final residual = 6.66642e-09, No Iterations 3
DILUPBiCGStab:  Solving for O2, Initial residual = 0.00175924, Final residual = 2.88794e-09, No Iterations 3
DILUPBiCGStab:  Solving for H2O, Initial residual = 0.00175935, Final residual = 2.88798e-09, No Iterations 3
DILUPBiCGStab:  Solving for CH4, Initial residual = 0, Final residual = 0, No Iterations 0
DILUPBiCGStab:  Solving for CO2, Initial residual = 0.00175935, Final residual = 2.88798e-09, No Iterations 3
DILUPBiCGStab:  Solving for h, Initial residual = 0.00201125, Final residual = 2.67681e-09, No Iterations 3
min/max(T) = 299.872, 1044.98
GAMGPCG:  Solving for p_rgh, Initial residual = 0.0210815, Final residual = 8.93096e-07, No Iterations 4
diagonal:  Solving for rho, Initial residual = 0, Final residual = 0, No Iterations 0
time step continuity errors : sum local = 2.68108e-08, global = 1.95632e-09, cumulative = 7.97795e-07
GAMGPCG:  Solving for p_rgh, Initial residual = 0.00332366, Final residual = 2.75178e-07, No Iterations 4
diagonal:  Solving for rho, Initial residual = 0, Final residual = 0, No Iterations 0
time step continuity errors : sum local = 8.0659e-09, global = 1.62923e-09, cumulative = 7.99424e-07
DILUPBiCGStab:  Solving for omega, Initial residual = 7.47213e-05, Final residual = 1.6384e-09, No Iterations 2
DILUPBiCGStab:  Solving for k, Initial residual = 0.00343663, Final residual = 4.60065e-09, No Iterations 3

ExecutionTime = 289.83 s  ClockTime = 290 s

    Overall     = 0.00123677, 0.01
Time = 2499

diagonal:  Solving for rho, Initial residual = 0, Final residual = 0, No Iterations 0

Execution time for mesh.update() = 0 s

DILUPBiCGStab:  Solving for Ux, Initial residual = 0.00398628, Final residual = 5.48831e-09, No Iterations 3
DILUPBiCGStab:  Solving for Uy, Initial residual = 0.00377031, Final residual = 7.79924e-09, No Iterations 3
DILUPBiCGStab:  Solving for O2, Initial residual = 0.00174463, Final residual = 2.86274e-09, No Iterations 3
DILUPBiCGStab:  Solving for H2O, Initial residual = 0.00174482, Final residual = 2.86273e-09, No Iterations 3
DILUPBiCGStab:  Solving for CH4, Initial residual = 0, Final residual = 0, No Iterations 0
DILUPBiCGStab:  Solving for CO2, Initial residual = 0.00174482, Final residual = 2.86273e-09, No Iterations 3
DILUPBiCGStab:  Solving for h, Initial residual = 0.00198939, Final residual = 2.77769e-09, No Iterations 3
min/max(T) = 299.875, 1044.98
GAMGPCG:  Solving for p_rgh, Initial residual = 0.0210524, Final residual = 8.77996e-07, No Iterations 4
diagonal:  Solving for rho, Initial residual = 0, Final residual = 0, No Iterations 0
time step continuity errors : sum local = 2.58795e-08, global = 1.08379e-09, cumulative = 8.00508e-07
GAMGPCG:  Solving for p_rgh, Initial residual = 0.00332679, Final residual = 2.66327e-07, No Iterations 4
diagonal:  Solving for rho, Initial residual = 0, Final residual = 0, No Iterations 0
time step continuity errors : sum local = 7.62071e-09, global = 1.1019e-09, cumulative = 8.0161e-07
DILUPBiCGStab:  Solving for omega, Initial residual = 7.43842e-05, Final residual = 1.57337e-09, No Iterations 2
DILUPBiCGStab:  Solving for k, Initial residual = 0.00344524, Final residual = 1.54698e-09, No Iterations 3

ExecutionTime = 289.95 s  ClockTime = 290 s

    Overall     = 0.00124592, 0.01
Time = 2500

diagonal:  Solving for rho, Initial residual = 0, Final residual = 0, No Iterations 0

Execution time for mesh.update() = 0 s

DILUPBiCGStab:  Solving for Ux, Initial residual = 0.00404766, Final residual = 5.66649e-09, No Iterations 3
DILUPBiCGStab:  Solving for Uy, Initial residual = 0.00381108, Final residual = 9.18804e-09, No Iterations 3
GAMGPCG:  Solving for G, Initial residual = 0.196703, Final residual = 2.3153e-05, No Iterations 6
DILUPBiCGStab:  Solving for O2, Initial residual = 0.00174413, Final residual = 2.78383e-09, No Iterations 3
DILUPBiCGStab:  Solving for H2O, Initial residual = 0.00174423, Final residual = 2.78384e-09, No Iterations 3
DILUPBiCGStab:  Solving for CH4, Initial residual = 0, Final residual = 0, No Iterations 0
DILUPBiCGStab:  Solving for CO2, Initial residual = 0.00174423, Final residual = 2.78384e-09, No Iterations 3
DILUPBiCGStab:  Solving for h, Initial residual = 0.00199596, Final residual = 2.72195e-09, No Iterations 3
min/max(T) = 299.881, 1044.98
GAMGPCG:  Solving for p_rgh, Initial residual = 0.0207023, Final residual = 8.8464e-07, No Iterations 4
diagonal:  Solving for rho, Initial residual = 0, Final residual = 0, No Iterations 0
time step continuity errors : sum local = 2.6051e-08, global = 2.35114e-09, cumulative = 8.03961e-07
GAMGPCG:  Solving for p_rgh, Initial residual = 0.00340599, Final residual = 2.7888e-07, No Iterations 4
diagonal:  Solving for rho, Initial residual = 0, Final residual = 0, No Iterations 0
time step continuity errors : sum local = 8.09552e-09, global = 1.59355e-09, cumulative = 8.05554e-07
DILUPBiCGStab:  Solving for omega, Initial residual = 7.3811e-05, Final residual = 1.53313e-09, No Iterations 2
DILUPBiCGStab:  Solving for k, Initial residual = 0.00341857, Final residual = 2.84078e-09, No Iterations 3

ExecutionTime = 290.19 s  ClockTime = 290 s


Patch Mean : 301.866
Patch Variance : 0.00490497
Patch Gradient : 0.130136
End
