/*---------------------------------------------------------------------------*\
  =========                 |
  \\      /  F ield         | OpenFOAM: The Open Source CFD Toolbox
   \\    /   O peration     | Website:  https://openfoam.org
    \\  /    A nd           | Version:  dev
     \\/     M anipulation  |
\*---------------------------------------------------------------------------*/
Build  : dev-cabe48fb62c1
Exec   : fireDyMFoam
Date   : Apr 15 2019
Time   : 11:19:03
Host   : "Host"
PID    : 28110
I/O    : uncollated
Case   : /home/tesla/OpenFOAM/tesla-dev/run/rollerOpt_COBYLA_NEW
nProcs : 1
sigFpe : Enabling floating point exception trapping (FOAM_SIGFPE).
fileModificationChecking : Monitoring run-time modified files using timeStampMaster (fileModificationSkew 10)
allowSystemOperations : Allowing user-supplied system call operations

// * * * * * * * * * * * * * * * * * * * * * * * * * * * * * * * * * * * * * //
Create time

--> FOAM Warning : 
    From function void* Foam::dlOpen(const Foam::fileName&, bool)
    in file POSIX.C at line 1268
    dlopen error : libgroovyBC.so: cannot open shared object file: No such file or directory
--> FOAM Warning : 
    From function bool Foam::dlLibraryTable::open(const Foam::fileName&, bool)
    in file db/dynamicLibrary/dlLibraryTable/dlLibraryTable.C at line 105
    could not load "libgroovyBC.so"
Create mesh for time = 250

Selecting dynamicFvMesh dynamicRefineFvMesh
Detected 536 cells that are protected from refinement. Writing these to cellSet protectedCells.

PIMPLE: No convergence criteria found


PIMPLE: Operating solver in PISO mode


Initializing Solver

Selecting thermodynamics package 
{
    type            hePsiThermo;
    mixture         reactingMixture;
    transport       sutherland;
    thermo          janaf;
    energy          sensibleEnthalpy;
    equationOfState perfectGas;
    specie          specie;
}

Selecting chemistryReader foamChemistryReader
    elements not defined in "/home/tesla/OpenFOAM/tesla-dev/run/rollerOpt_COBYLA_NEW/constant/reactions"
Reading/calculating face flux field phi

No MRF models present

Selecting turbulence model type RAS
Selecting RAS turbulence model kOmegaSST
Selecting patchDistMethod meshWave
kOmegaSSTCoeffs
{
    delta           cubeRootVol;
    cubeRootVolCoeffs
    {
        deltaCoeff      1;
    }
    alphaK1         0.85;
    alphaK2         1;
    alphaOmega1     0.5;
    alphaOmega2     0.856;
    gamma1          0.555556;
    gamma2          0.44;
    beta1           0.075;
    beta2           0.0828;
    betaStar        0.09;
    a1              0.31;
    b1              1;
    c1              10;
    F3              false;
}

Selecting combustion model none<psiThermoCombustion>
--> FOAM Warning : 
    From function static Foam::autoPtr<T> Foam::combustionModel::New(typename CombustionModel::reactionThermo&, const Foam::compressibleTurbulenceModel&, const Foam::word&) [with CombustionModel = Foam::CombustionModel<Foam::psiReactionThermo>; typename CombustionModel::reactionThermo = Foam::psiReactionThermo]
    in file /home/tesla/OpenFOAM/OpenFOAM-dev/src/combustionModels/lnInclude/combustionModelTemplates.C at line 69
    Template parameters are no longer required when selecting a combustionModel. This information is now obtained directly from the thermodynamics. Actually selecting combustion model none.

Reading g

Reading hRef
Calculating field g.h


Reading pRef
Selecting radiationModel P1
Selecting absorptionEmissionModel greyMeanAbsorptionEmission
Selecting scatterModel none
Selecting sootModel none
Creating finite volume options from "system/fvOptions"

No finite volume options present
Using LTS

Starting time loop

Using dynamicCode for functionObject patchCalcs at line 64 in "/home/tesla/OpenFOAM/tesla-dev/run/rollerOpt_COBYLA_NEW/system/controlDict.functions.patchCalcs"
    Overall     = 0.00152735, 0.01
Time = 251

diagonal:  Solving for rho, Initial residual = 0, Final residual = 0, No Iterations 0

Execution time for mesh.update() = 0 s

DILUPBiCGStab:  Solving for Ux, Initial residual = 0.00513143, Final residual = 7.74492e-09, No Iterations 3
DILUPBiCGStab:  Solving for Uy, Initial residual = 0.00910492, Final residual = 1.52866e-09, No Iterations 3
GAMGPCG:  Solving for G, Initial residual = 0.0297588, Final residual = 2.54962e-05, No Iterations 5
DILUPBiCGStab:  Solving for O2, Initial residual = 0.0041446, Final residual = 4.02524e-09, No Iterations 3
DILUPBiCGStab:  Solving for H2O, Initial residual = 0.00414459, Final residual = 4.02542e-09, No Iterations 3
DILUPBiCGStab:  Solving for CH4, Initial residual = 0, Final residual = 0, No Iterations 0
DILUPBiCGStab:  Solving for CO2, Initial residual = 0.00414459, Final residual = 4.02542e-09, No Iterations 3
DILUPBiCGStab:  Solving for h, Initial residual = 0.004614, Final residual = 3.91503e-09, No Iterations 3
min/max(T) = 299.976, 1044.97
GAMGPCG:  Solving for p_rgh, Initial residual = 0.0287096, Final residual = 1.87564e-07, No Iterations 5
diagonal:  Solving for rho, Initial residual = 0, Final residual = 0, No Iterations 0
time step continuity errors : sum local = 2.46192e-06, global = -1.43613e-07, cumulative = -1.43613e-07
GAMGPCG:  Solving for p_rgh, Initial residual = 0.00489519, Final residual = 2.94856e-07, No Iterations 4
diagonal:  Solving for rho, Initial residual = 0, Final residual = 0, No Iterations 0
time step continuity errors : sum local = 2.46148e-06, global = -1.42432e-07, cumulative = -2.86045e-07
DILUPBiCGStab:  Solving for omega, Initial residual = 0.000115535, Final residual = 2.40034e-09, No Iterations 2
DILUPBiCGStab:  Solving for k, Initial residual = 0.00543381, Final residual = 2.93679e-09, No Iterations 3

ExecutionTime = 0.38 s  ClockTime = 0 s

    Overall     = 0.00152487, 0.01
Time = 252

diagonal:  Solving for rho, Initial residual = 0, Final residual = 0, No Iterations 0

Execution time for mesh.update() = 0 s

DILUPBiCGStab:  Solving for Ux, Initial residual = 0.0050985, Final residual = 9.02484e-09, No Iterations 3
DILUPBiCGStab:  Solving for Uy, Initial residual = 0.00904396, Final residual = 1.65972e-09, No Iterations 3
DILUPBiCGStab:  Solving for O2, Initial residual = 0.00413824, Final residual = 3.92642e-09, No Iterations 3
DILUPBiCGStab:  Solving for H2O, Initial residual = 0.00413819, Final residual = 3.92645e-09, No Iterations 3
DILUPBiCGStab:  Solving for CH4, Initial residual = 0, Final residual = 0, No Iterations 0
DILUPBiCGStab:  Solving for CO2, Initial residual = 0.00413819, Final residual = 3.92645e-09, No Iterations 3
DILUPBiCGStab:  Solving for h, Initial residual = 0.00460612, Final residual = 3.84746e-09, No Iterations 3
min/max(T) = 300, 1044.97
GAMGPCG:  Solving for p_rgh, Initial residual = 0.0284987, Final residual = 2.42222e-07, No Iterations 5
diagonal:  Solving for rho, Initial residual = 0, Final residual = 0, No Iterations 0
time step continuity errors : sum local = 8.4265e-09, global = 3.52981e-10, cumulative = -2.85692e-07
GAMGPCG:  Solving for p_rgh, Initial residual = 0.00469527, Final residual = 2.72065e-07, No Iterations 4
diagonal:  Solving for rho, Initial residual = 0, Final residual = 0, No Iterations 0
time step continuity errors : sum local = 8.92025e-09, global = 2.18371e-10, cumulative = -2.85474e-07
DILUPBiCGStab:  Solving for omega, Initial residual = 0.000116262, Final residual = 2.35963e-09, No Iterations 2
DILUPBiCGStab:  Solving for k, Initial residual = 0.0054072, Final residual = 3.11935e-09, No Iterations 3

ExecutionTime = 0.51 s  ClockTime = 0 s

    Overall     = 0.00152319, 0.01
Time = 253

diagonal:  Solving for rho, Initial residual = 0, Final residual = 0, No Iterations 0

Execution time for mesh.update() = 0 s

DILUPBiCGStab:  Solving for Ux, Initial residual = 0.00505997, Final residual = 8.85688e-09, No Iterations 3
DILUPBiCGStab:  Solving for Uy, Initial residual = 0.00902988, Final residual = 1.71791e-09, No Iterations 3
DILUPBiCGStab:  Solving for O2, Initial residual = 0.00414201, Final residual = 5.09311e-09, No Iterations 3
DILUPBiCGStab:  Solving for H2O, Initial residual = 0.00414202, Final residual = 5.09308e-09, No Iterations 3
DILUPBiCGStab:  Solving for CH4, Initial residual = 0, Final residual = 0, No Iterations 0
DILUPBiCGStab:  Solving for CO2, Initial residual = 0.00414202, Final residual = 5.09309e-09, No Iterations 3
DILUPBiCGStab:  Solving for h, Initial residual = 0.00461512, Final residual = 5.24188e-09, No Iterations 3
min/max(T) = 299.98, 1044.97
GAMGPCG:  Solving for p_rgh, Initial residual = 0.0284411, Final residual = 2.30584e-07, No Iterations 5
diagonal:  Solving for rho, Initial residual = 0, Final residual = 0, No Iterations 0
time step continuity errors : sum local = 7.87491e-09, global = 2.79908e-10, cumulative = -2.85194e-07
GAMGPCG:  Solving for p_rgh, Initial residual = 0.00471873, Final residual = 2.60294e-07, No Iterations 4
diagonal:  Solving for rho, Initial residual = 0, Final residual = 0, No Iterations 0
time step continuity errors : sum local = 8.44889e-09, global = -8.13948e-10, cumulative = -2.86008e-07
DILUPBiCGStab:  Solving for omega, Initial residual = 0.000116138, Final residual = 2.26386e-09, No Iterations 2
DILUPBiCGStab:  Solving for k, Initial residual = 0.00538262, Final residual = 3.36733e-09, No Iterations 3

ExecutionTime = 0.63 s  ClockTime = 0 s

    Overall     = 0.00152142, 0.01
Time = 254

diagonal:  Solving for rho, Initial residual = 0, Final residual = 0, No Iterations 0

Execution time for mesh.update() = 0 s

DILUPBiCGStab:  Solving for Ux, Initial residual = 0.00503629, Final residual = 8.16702e-09, No Iterations 3
DILUPBiCGStab:  Solving for Uy, Initial residual = 0.00895795, Final residual = 1.58361e-09, No Iterations 3
DILUPBiCGStab:  Solving for O2, Initial residual = 0.00413742, Final residual = 5.02876e-09, No Iterations 3
DILUPBiCGStab:  Solving for H2O, Initial residual = 0.00413738, Final residual = 5.02872e-09, No Iterations 3
DILUPBiCGStab:  Solving for CH4, Initial residual = 0, Final residual = 0, No Iterations 0
DILUPBiCGStab:  Solving for CO2, Initial residual = 0.00413738, Final residual = 5.02873e-09, No Iterations 3
DILUPBiCGStab:  Solving for h, Initial residual = 0.00460804, Final residual = 5.1041e-09, No Iterations 3
min/max(T) = 300, 1044.97
GAMGPCG:  Solving for p_rgh, Initial residual = 0.0281192, Final residual = 2.58969e-07, No Iterations 5
diagonal:  Solving for rho, Initial residual = 0, Final residual = 0, No Iterations 0
time step continuity errors : sum local = 8.85848e-09, global = 9.8847e-10, cumulative = -2.85019e-07
GAMGPCG:  Solving for p_rgh, Initial residual = 0.00461749, Final residual = 2.97741e-07, No Iterations 4
diagonal:  Solving for rho, Initial residual = 0, Final residual = 0, No Iterations 0
time step continuity errors : sum local = 9.58142e-09, global = -6.80142e-10, cumulative = -2.857e-07
DILUPBiCGStab:  Solving for omega, Initial residual = 0.000116506, Final residual = 2.10503e-09, No Iterations 2
DILUPBiCGStab:  Solving for k, Initial residual = 0.0053697, Final residual = 3.34439e-09, No Iterations 3

ExecutionTime = 0.75 s  ClockTime = 1 s

    Overall     = 0.00151969, 0.01
Time = 255

diagonal:  Solving for rho, Initial residual = 0, Final residual = 0, No Iterations 0

Execution time for mesh.update() = 0 s

DILUPBiCGStab:  Solving for Ux, Initial residual = 0.00503264, Final residual = 7.03412e-09, No Iterations 3
DILUPBiCGStab:  Solving for Uy, Initial residual = 0.00895735, Final residual = 1.33245e-09, No Iterations 3
DILUPBiCGStab:  Solving for O2, Initial residual = 0.00413694, Final residual = 4.47286e-09, No Iterations 3
DILUPBiCGStab:  Solving for H2O, Initial residual = 0.00413695, Final residual = 4.47283e-09, No Iterations 3
DILUPBiCGStab:  Solving for CH4, Initial residual = 0, Final residual = 0, No Iterations 0
DILUPBiCGStab:  Solving for CO2, Initial residual = 0.00413695, Final residual = 4.47283e-09, No Iterations 3
DILUPBiCGStab:  Solving for h, Initial residual = 0.00461115, Final residual = 4.54924e-09, No Iterations 3
min/max(T) = 299.982, 1044.97
GAMGPCG:  Solving for p_rgh, Initial residual = 0.0276735, Final residual = 2.42069e-07, No Iterations 5
diagonal:  Solving for rho, Initial residual = 0, Final residual = 0, No Iterations 0
time step continuity errors : sum local = 8.21748e-09, global = 4.48481e-10, cumulative = -2.85251e-07
GAMGPCG:  Solving for p_rgh, Initial residual = 0.00470784, Final residual = 3.09293e-07, No Iterations 4
diagonal:  Solving for rho, Initial residual = 0, Final residual = 0, No Iterations 0
time step continuity errors : sum local = 1.0012e-08, global = -6.75543e-10, cumulative = -2.85927e-07
DILUPBiCGStab:  Solving for omega, Initial residual = 0.000115717, Final residual = 2.05524e-09, No Iterations 2
DILUPBiCGStab:  Solving for k, Initial residual = 0.00534253, Final residual = 3.2244e-09, No Iterations 3

ExecutionTime = 0.86 s  ClockTime = 1 s

    Overall     = 0.0015172, 0.01
Time = 256

diagonal:  Solving for rho, Initial residual = 0, Final residual = 0, No Iterations 0

Execution time for mesh.update() = 0 s

DILUPBiCGStab:  Solving for Ux, Initial residual = 0.00501694, Final residual = 7.3459e-09, No Iterations 3
DILUPBiCGStab:  Solving for Uy, Initial residual = 0.00890415, Final residual = 1.14822e-09, No Iterations 3
DILUPBiCGStab:  Solving for O2, Initial residual = 0.00413015, Final residual = 3.1444e-09, No Iterations 3
DILUPBiCGStab:  Solving for H2O, Initial residual = 0.00413012, Final residual = 3.14435e-09, No Iterations 3
DILUPBiCGStab:  Solving for CH4, Initial residual = 0, Final residual = 0, No Iterations 0
DILUPBiCGStab:  Solving for CO2, Initial residual = 0.00413012, Final residual = 3.14435e-09, No Iterations 3
DILUPBiCGStab:  Solving for h, Initial residual = 0.00460197, Final residual = 2.87325e-09, No Iterations 3
min/max(T) = 300, 1044.97
GAMGPCG:  Solving for p_rgh, Initial residual = 0.0277605, Final residual = 2.32338e-07, No Iterations 5
diagonal:  Solving for rho, Initial residual = 0, Final residual = 0, No Iterations 0
time step continuity errors : sum local = 8.0021e-09, global = 1.50117e-09, cumulative = -2.84425e-07
GAMGPCG:  Solving for p_rgh, Initial residual = 0.00468007, Final residual = 3.28128e-07, No Iterations 4
diagonal:  Solving for rho, Initial residual = 0, Final residual = 0, No Iterations 0
time step continuity errors : sum local = 1.06552e-08, global = -6.45922e-10, cumulative = -2.85071e-07
DILUPBiCGStab:  Solving for omega, Initial residual = 0.000116402, Final residual = 1.98471e-09, No Iterations 2
bounding omega, min: -0.0919121 max: 15621.4 average: 298.849
DILUPBiCGStab:  Solving for k, Initial residual = 0.00531145, Final residual = 3.17966e-09, No Iterations 3

ExecutionTime = 0.98 s  ClockTime = 1 s

    Overall     = 0.00151673, 0.01
Time = 257

diagonal:  Solving for rho, Initial residual = 0, Final residual = 0, No Iterations 0

Execution time for mesh.update() = 0 s

DILUPBiCGStab:  Solving for Ux, Initial residual = 0.00500519, Final residual = 7.08765e-09, No Iterations 3
DILUPBiCGStab:  Solving for Uy, Initial residual = 0.00886746, Final residual = 1.28072e-09, No Iterations 3
DILUPBiCGStab:  Solving for O2, Initial residual = 0.0041309, Final residual = 3.06076e-09, No Iterations 3
DILUPBiCGStab:  Solving for H2O, Initial residual = 0.00413092, Final residual = 3.06068e-09, No Iterations 3
DILUPBiCGStab:  Solving for CH4, Initial residual = 0, Final residual = 0, No Iterations 0
DILUPBiCGStab:  Solving for CO2, Initial residual = 0.00413092, Final residual = 3.06068e-09, No Iterations 3
DILUPBiCGStab:  Solving for h, Initial residual = 0.00460519, Final residual = 2.76295e-09, No Iterations 3
min/max(T) = 299.985, 1044.97
GAMGPCG:  Solving for p_rgh, Initial residual = 0.0278055, Final residual = 2.13974e-07, No Iterations 5
diagonal:  Solving for rho, Initial residual = 0, Final residual = 0, No Iterations 0
time step continuity errors : sum local = 7.32332e-09, global = 8.57097e-10, cumulative = -2.84214e-07
GAMGPCG:  Solving for p_rgh, Initial residual = 0.00475928, Final residual = 3.28868e-07, No Iterations 4
diagonal:  Solving for rho, Initial residual = 0, Final residual = 0, No Iterations 0
time step continuity errors : sum local = 1.07478e-08, global = -7.94876e-10, cumulative = -2.85009e-07
DILUPBiCGStab:  Solving for omega, Initial residual = 0.000115905, Final residual = 1.72134e-09, No Iterations 2
DILUPBiCGStab:  Solving for k, Initial residual = 0.00529297, Final residual = 2.8664e-09, No Iterations 3

ExecutionTime = 1.1 s  ClockTime = 1 s

    Overall     = 0.00151558, 0.01
Time = 258

diagonal:  Solving for rho, Initial residual = 0, Final residual = 0, No Iterations 0

Execution time for mesh.update() = 0 s

DILUPBiCGStab:  Solving for Ux, Initial residual = 0.00499015, Final residual = 7.90088e-09, No Iterations 3
DILUPBiCGStab:  Solving for Uy, Initial residual = 0.00881433, Final residual = 1.04568e-09, No Iterations 3
DILUPBiCGStab:  Solving for O2, Initial residual = 0.0041232, Final residual = 3.44837e-09, No Iterations 3
DILUPBiCGStab:  Solving for H2O, Initial residual = 0.00412317, Final residual = 3.44829e-09, No Iterations 3
DILUPBiCGStab:  Solving for CH4, Initial residual = 0, Final residual = 0, No Iterations 0
DILUPBiCGStab:  Solving for CO2, Initial residual = 0.00412317, Final residual = 3.44829e-09, No Iterations 3
DILUPBiCGStab:  Solving for h, Initial residual = 0.00459559, Final residual = 3.25479e-09, No Iterations 3
min/max(T) = 300, 1044.97
GAMGPCG:  Solving for p_rgh, Initial residual = 0.0272555, Final residual = 2.14204e-07, No Iterations 5
diagonal:  Solving for rho, Initial residual = 0, Final residual = 0, No Iterations 0
time step continuity errors : sum local = 7.32304e-09, global = 1.06735e-09, cumulative = -2.83942e-07
GAMGPCG:  Solving for p_rgh, Initial residual = 0.00470083, Final residual = 3.40039e-07, No Iterations 4
diagonal:  Solving for rho, Initial residual = 0, Final residual = 0, No Iterations 0
time step continuity errors : sum local = 1.10084e-08, global = -7.55214e-10, cumulative = -2.84697e-07
DILUPBiCGStab:  Solving for omega, Initial residual = 0.000115726, Final residual = 1.77949e-09, No Iterations 2
DILUPBiCGStab:  Solving for k, Initial residual = 0.00525564, Final residual = 2.9753e-09, No Iterations 3

ExecutionTime = 1.22 s  ClockTime = 1 s

    Overall     = 0.00151651, 0.01
Time = 259

diagonal:  Solving for rho, Initial residual = 0, Final residual = 0, No Iterations 0

Execution time for mesh.update() = 0 s

DILUPBiCGStab:  Solving for Ux, Initial residual = 0.00497216, Final residual = 7.67353e-09, No Iterations 3
DILUPBiCGStab:  Solving for Uy, Initial residual = 0.00878759, Final residual = 1.26345e-09, No Iterations 3
DILUPBiCGStab:  Solving for O2, Initial residual = 0.0041203, Final residual = 3.45003e-09, No Iterations 3
DILUPBiCGStab:  Solving for H2O, Initial residual = 0.00412031, Final residual = 3.4499e-09, No Iterations 3
DILUPBiCGStab:  Solving for CH4, Initial residual = 0, Final residual = 0, No Iterations 0
DILUPBiCGStab:  Solving for CO2, Initial residual = 0.00412031, Final residual = 3.4499e-09, No Iterations 3
DILUPBiCGStab:  Solving for h, Initial residual = 0.00459417, Final residual = 3.33766e-09, No Iterations 3
min/max(T) = 300, 1044.97
GAMGPCG:  Solving for p_rgh, Initial residual = 0.0272683, Final residual = 1.91236e-07, No Iterations 5
diagonal:  Solving for rho, Initial residual = 0, Final residual = 0, No Iterations 0
time step continuity errors : sum local = 6.46066e-09, global = 8.44246e-10, cumulative = -2.83853e-07
GAMGPCG:  Solving for p_rgh, Initial residual = 0.0047759, Final residual = 3.8041e-07, No Iterations 4
diagonal:  Solving for rho, Initial residual = 0, Final residual = 0, No Iterations 0
time step continuity errors : sum local = 1.20703e-08, global = -6.67308e-10, cumulative = -2.8452e-07
DILUPBiCGStab:  Solving for omega, Initial residual = 0.000115516, Final residual = 1.74466e-09, No Iterations 2
DILUPBiCGStab:  Solving for k, Initial residual = 0.00523058, Final residual = 1.17334e-09, No Iterations 3

ExecutionTime = 1.34 s  ClockTime = 1 s

    Overall     = 0.00151863, 0.01
Time = 260

diagonal:  Solving for rho, Initial residual = 0, Final residual = 0, No Iterations 0

Execution time for mesh.update() = 0 s

DILUPBiCGStab:  Solving for Ux, Initial residual = 0.00494611, Final residual = 7.1012e-09, No Iterations 3
DILUPBiCGStab:  Solving for Uy, Initial residual = 0.0087285, Final residual = 1.41832e-09, No Iterations 3
GAMGPCG:  Solving for G, Initial residual = 0.1269, Final residual = 5.68096e-05, No Iterations 6
DILUPBiCGStab:  Solving for O2, Initial residual = 0.00412748, Final residual = 3.22843e-09, No Iterations 3
DILUPBiCGStab:  Solving for H2O, Initial residual = 0.00412747, Final residual = 3.22836e-09, No Iterations 3
DILUPBiCGStab:  Solving for CH4, Initial residual = 0, Final residual = 0, No Iterations 0
DILUPBiCGStab:  Solving for CO2, Initial residual = 0.00412747, Final residual = 3.22836e-09, No Iterations 3
DILUPBiCGStab:  Solving for h, Initial residual = 0.00460225, Final residual = 2.93262e-09, No Iterations 3
min/max(T) = 300, 1044.97
GAMGPCG:  Solving for p_rgh, Initial residual = 0.0272342, Final residual = 2.08693e-07, No Iterations 5
diagonal:  Solving for rho, Initial residual = 0, Final residual = 0, No Iterations 0
time step continuity errors : sum local = 6.97369e-09, global = 1.0371e-09, cumulative = -2.83483e-07
GAMGPCG:  Solving for p_rgh, Initial residual = 0.00472182, Final residual = 3.77692e-07, No Iterations 4
diagonal:  Solving for rho, Initial residual = 0, Final residual = 0, No Iterations 0
time step continuity errors : sum local = 1.19671e-08, global = -2.78589e-10, cumulative = -2.83762e-07
DILUPBiCGStab:  Solving for omega, Initial residual = 0.000116423, Final residual = 1.51141e-09, No Iterations 2
DILUPBiCGStab:  Solving for k, Initial residual = 0.00520389, Final residual = 5.35302e-09, No Iterations 3

ExecutionTime = 1.59 s  ClockTime = 1 s

    Overall     = 0.00152038, 0.01
Time = 261

diagonal:  Solving for rho, Initial residual = 0, Final residual = 0, No Iterations 0

Execution time for mesh.update() = 0 s

DILUPBiCGStab:  Solving for Ux, Initial residual = 0.00492808, Final residual = 2.1196e-09, No Iterations 3
DILUPBiCGStab:  Solving for Uy, Initial residual = 0.00871049, Final residual = 1.25128e-09, No Iterations 3
DILUPBiCGStab:  Solving for O2, Initial residual = 0.00411809, Final residual = 3.39432e-09, No Iterations 3
DILUPBiCGStab:  Solving for H2O, Initial residual = 0.00411809, Final residual = 3.39427e-09, No Iterations 3
DILUPBiCGStab:  Solving for CH4, Initial residual = 0, Final residual = 0, No Iterations 0
DILUPBiCGStab:  Solving for CO2, Initial residual = 0.00411809, Final residual = 3.39427e-09, No Iterations 3
DILUPBiCGStab:  Solving for h, Initial residual = 0.00459166, Final residual = 3.16593e-09, No Iterations 3
min/max(T) = 300, 1044.97
GAMGPCG:  Solving for p_rgh, Initial residual = 0.0269531, Final residual = 2.06588e-07, No Iterations 5
diagonal:  Solving for rho, Initial residual = 0, Final residual = 0, No Iterations 0
time step continuity errors : sum local = 6.86617e-09, global = 5.81524e-10, cumulative = -2.8318e-07
GAMGPCG:  Solving for p_rgh, Initial residual = 0.00482099, Final residual = 3.51611e-07, No Iterations 4
diagonal:  Solving for rho, Initial residual = 0, Final residual = 0, No Iterations 0
time step continuity errors : sum local = 1.10464e-08, global = 2.73302e-10, cumulative = -2.82907e-07
DILUPBiCGStab:  Solving for omega, Initial residual = 0.000116761, Final residual = 1.59951e-09, No Iterations 2
DILUPBiCGStab:  Solving for k, Initial residual = 0.00517863, Final residual = 2.79047e-09, No Iterations 3

ExecutionTime = 1.71 s  ClockTime = 1 s

    Overall     = 0.00152168, 0.01
Time = 262

diagonal:  Solving for rho, Initial residual = 0, Final residual = 0, No Iterations 0

Execution time for mesh.update() = 0 s

DILUPBiCGStab:  Solving for Ux, Initial residual = 0.0049145, Final residual = 5.60135e-09, No Iterations 3
DILUPBiCGStab:  Solving for Uy, Initial residual = 0.00859767, Final residual = 1.09352e-09, No Iterations 3
DILUPBiCGStab:  Solving for O2, Initial residual = 0.00411501, Final residual = 3.46525e-09, No Iterations 3
DILUPBiCGStab:  Solving for H2O, Initial residual = 0.00411501, Final residual = 3.46522e-09, No Iterations 3
DILUPBiCGStab:  Solving for CH4, Initial residual = 0, Final residual = 0, No Iterations 0
DILUPBiCGStab:  Solving for CO2, Initial residual = 0.00411501, Final residual = 3.46523e-09, No Iterations 3
DILUPBiCGStab:  Solving for h, Initial residual = 0.00458751, Final residual = 3.07941e-09, No Iterations 3
min/max(T) = 300, 1044.97
GAMGPCG:  Solving for p_rgh, Initial residual = 0.0269356, Final residual = 2.16897e-07, No Iterations 5
diagonal:  Solving for rho, Initial residual = 0, Final residual = 0, No Iterations 0
time step continuity errors : sum local = 7.20482e-09, global = 5.56378e-10, cumulative = -2.8235e-07
GAMGPCG:  Solving for p_rgh, Initial residual = 0.00465504, Final residual = 3.62421e-07, No Iterations 4
diagonal:  Solving for rho, Initial residual = 0, Final residual = 0, No Iterations 0
time step continuity errors : sum local = 1.13539e-08, global = 1.43161e-10, cumulative = -2.82207e-07
DILUPBiCGStab:  Solving for omega, Initial residual = 0.00011664, Final residual = 1.82351e-09, No Iterations 2
DILUPBiCGStab:  Solving for k, Initial residual = 0.00514696, Final residual = 3.34864e-09, No Iterations 3

ExecutionTime = 1.83 s  ClockTime = 2 s

    Overall     = 0.00152076, 0.01
Time = 263

diagonal:  Solving for rho, Initial residual = 0, Final residual = 0, No Iterations 0

Execution time for mesh.update() = 0 s

DILUPBiCGStab:  Solving for Ux, Initial residual = 0.00490236, Final residual = 6.18224e-09, No Iterations 3
DILUPBiCGStab:  Solving for Uy, Initial residual = 0.00857829, Final residual = 9.5456e-10, No Iterations 3
DILUPBiCGStab:  Solving for O2, Initial residual = 0.004117, Final residual = 3.37214e-09, No Iterations 3
DILUPBiCGStab:  Solving for H2O, Initial residual = 0.004117, Final residual = 3.37214e-09, No Iterations 3
DILUPBiCGStab:  Solving for CH4, Initial residual = 0, Final residual = 0, No Iterations 0
DILUPBiCGStab:  Solving for CO2, Initial residual = 0.004117, Final residual = 3.37214e-09, No Iterations 3
DILUPBiCGStab:  Solving for h, Initial residual = 0.00458942, Final residual = 2.88808e-09, No Iterations 3
min/max(T) = 300, 1044.97
GAMGPCG:  Solving for p_rgh, Initial residual = 0.0268121, Final residual = 2.21902e-07, No Iterations 5
diagonal:  Solving for rho, Initial residual = 0, Final residual = 0, No Iterations 0
time step continuity errors : sum local = 7.31739e-09, global = 3.74325e-10, cumulative = -2.81833e-07
GAMGPCG:  Solving for p_rgh, Initial residual = 0.00464879, Final residual = 3.5985e-07, No Iterations 4
diagonal:  Solving for rho, Initial residual = 0, Final residual = 0, No Iterations 0
time step continuity errors : sum local = 1.12525e-08, global = -1.60597e-10, cumulative = -2.81993e-07
DILUPBiCGStab:  Solving for omega, Initial residual = 0.000115981, Final residual = 1.83238e-09, No Iterations 2
DILUPBiCGStab:  Solving for k, Initial residual = 0.00512306, Final residual = 3.51885e-09, No Iterations 3

ExecutionTime = 1.95 s  ClockTime = 2 s

    Overall     = 0.00152012, 0.01
Time = 264

diagonal:  Solving for rho, Initial residual = 0, Final residual = 0, No Iterations 0

Execution time for mesh.update() = 0 s

DILUPBiCGStab:  Solving for Ux, Initial residual = 0.00490186, Final residual = 5.82615e-09, No Iterations 3
DILUPBiCGStab:  Solving for Uy, Initial residual = 0.00848332, Final residual = 9.44536e-09, No Iterations 3
DILUPBiCGStab:  Solving for O2, Initial residual = 0.00411074, Final residual = 3.36443e-09, No Iterations 3
DILUPBiCGStab:  Solving for H2O, Initial residual = 0.00411074, Final residual = 3.36445e-09, No Iterations 3
DILUPBiCGStab:  Solving for CH4, Initial residual = 0, Final residual = 0, No Iterations 0
DILUPBiCGStab:  Solving for CO2, Initial residual = 0.00411074, Final residual = 3.36445e-09, No Iterations 3
DILUPBiCGStab:  Solving for h, Initial residual = 0.00458692, Final residual = 2.84688e-09, No Iterations 3
min/max(T) = 300, 1044.97
GAMGPCG:  Solving for p_rgh, Initial residual = 0.0265355, Final residual = 2.04928e-07, No Iterations 5
diagonal:  Solving for rho, Initial residual = 0, Final residual = 0, No Iterations 0
time step continuity errors : sum local = 6.76308e-09, global = 8.83091e-10, cumulative = -2.8111e-07
GAMGPCG:  Solving for p_rgh, Initial residual = 0.00451359, Final residual = 3.74159e-07, No Iterations 4
diagonal:  Solving for rho, Initial residual = 0, Final residual = 0, No Iterations 0
time step continuity errors : sum local = 1.17944e-08, global = -3.90241e-10, cumulative = -2.81501e-07
DILUPBiCGStab:  Solving for omega, Initial residual = 0.000115197, Final residual = 1.69145e-09, No Iterations 2
DILUPBiCGStab:  Solving for k, Initial residual = 0.00510128, Final residual = 2.97633e-09, No Iterations 3

ExecutionTime = 2.07 s  ClockTime = 2 s

    Overall     = 0.00151893, 0.01
Time = 265

diagonal:  Solving for rho, Initial residual = 0, Final residual = 0, No Iterations 0

Execution time for mesh.update() = 0 s

DILUPBiCGStab:  Solving for Ux, Initial residual = 0.00489168, Final residual = 5.49408e-09, No Iterations 3
DILUPBiCGStab:  Solving for Uy, Initial residual = 0.00846242, Final residual = 8.4126e-09, No Iterations 3
DILUPBiCGStab:  Solving for O2, Initial residual = 0.00411655, Final residual = 3.47156e-09, No Iterations 3
DILUPBiCGStab:  Solving for H2O, Initial residual = 0.00411656, Final residual = 3.47158e-09, No Iterations 3
DILUPBiCGStab:  Solving for CH4, Initial residual = 0, Final residual = 0, No Iterations 0
DILUPBiCGStab:  Solving for CO2, Initial residual = 0.00411656, Final residual = 3.47158e-09, No Iterations 3
DILUPBiCGStab:  Solving for h, Initial residual = 0.0045912, Final residual = 2.84984e-09, No Iterations 3
min/max(T) = 300, 1044.97
GAMGPCG:  Solving for p_rgh, Initial residual = 0.0264831, Final residual = 2.00391e-07, No Iterations 5
diagonal:  Solving for rho, Initial residual = 0, Final residual = 0, No Iterations 0
time step continuity errors : sum local = 6.5634e-09, global = 5.54618e-10, cumulative = -2.80946e-07
GAMGPCG:  Solving for p_rgh, Initial residual = 0.00459662, Final residual = 3.24326e-07, No Iterations 4
diagonal:  Solving for rho, Initial residual = 0, Final residual = 0, No Iterations 0
time step continuity errors : sum local = 1.02041e-08, global = -2.79178e-10, cumulative = -2.81225e-07
DILUPBiCGStab:  Solving for omega, Initial residual = 0.0001153, Final residual = 1.64614e-09, No Iterations 2
DILUPBiCGStab:  Solving for k, Initial residual = 0.00507121, Final residual = 3.11395e-09, No Iterations 3

ExecutionTime = 2.18 s  ClockTime = 2 s

    Overall     = 0.00152025, 0.01
Time = 266

diagonal:  Solving for rho, Initial residual = 0, Final residual = 0, No Iterations 0

Execution time for mesh.update() = 0 s

DILUPBiCGStab:  Solving for Ux, Initial residual = 0.0048889, Final residual = 6.11407e-09, No Iterations 3
DILUPBiCGStab:  Solving for Uy, Initial residual = 0.00840292, Final residual = 7.68012e-09, No Iterations 3
DILUPBiCGStab:  Solving for O2, Initial residual = 0.0041088, Final residual = 3.49116e-09, No Iterations 3
DILUPBiCGStab:  Solving for H2O, Initial residual = 0.0041088, Final residual = 3.49123e-09, No Iterations 3
DILUPBiCGStab:  Solving for CH4, Initial residual = 0, Final residual = 0, No Iterations 0
DILUPBiCGStab:  Solving for CO2, Initial residual = 0.0041088, Final residual = 3.49123e-09, No Iterations 3
DILUPBiCGStab:  Solving for h, Initial residual = 0.00458187, Final residual = 2.81507e-09, No Iterations 3
min/max(T) = 300, 1044.97
GAMGPCG:  Solving for p_rgh, Initial residual = 0.0268347, Final residual = 2.03038e-07, No Iterations 5
diagonal:  Solving for rho, Initial residual = 0, Final residual = 0, No Iterations 0
time step continuity errors : sum local = 6.59885e-09, global = 4.73559e-10, cumulative = -2.80752e-07
GAMGPCG:  Solving for p_rgh, Initial residual = 0.00450856, Final residual = 3.09889e-07, No Iterations 4
diagonal:  Solving for rho, Initial residual = 0, Final residual = 0, No Iterations 0
time step continuity errors : sum local = 9.57644e-09, global = 1.74643e-10, cumulative = -2.80577e-07
DILUPBiCGStab:  Solving for omega, Initial residual = 0.000114607, Final residual = 1.5275e-09, No Iterations 2
DILUPBiCGStab:  Solving for k, Initial residual = 0.00504645, Final residual = 3.01695e-09, No Iterations 3

ExecutionTime = 2.3 s  ClockTime = 2 s

    Overall     = 0.00152217, 0.01
Time = 267

diagonal:  Solving for rho, Initial residual = 0, Final residual = 0, No Iterations 0

Execution time for mesh.update() = 0 s

DILUPBiCGStab:  Solving for Ux, Initial residual = 0.00486911, Final residual = 5.16688e-09, No Iterations 3
DILUPBiCGStab:  Solving for Uy, Initial residual = 0.00836035, Final residual = 7.28004e-09, No Iterations 3
DILUPBiCGStab:  Solving for O2, Initial residual = 0.00409466, Final residual = 3.64335e-09, No Iterations 3
DILUPBiCGStab:  Solving for H2O, Initial residual = 0.00409466, Final residual = 3.64339e-09, No Iterations 3
DILUPBiCGStab:  Solving for CH4, Initial residual = 0, Final residual = 0, No Iterations 0
DILUPBiCGStab:  Solving for CO2, Initial residual = 0.00409466, Final residual = 3.64339e-09, No Iterations 3
DILUPBiCGStab:  Solving for h, Initial residual = 0.00456733, Final residual = 2.83014e-09, No Iterations 3
min/max(T) = 300, 1044.97
GAMGPCG:  Solving for p_rgh, Initial residual = 0.026322, Final residual = 1.81821e-07, No Iterations 5
diagonal:  Solving for rho, Initial residual = 0, Final residual = 0, No Iterations 0
time step continuity errors : sum local = 5.91103e-09, global = 7.03351e-10, cumulative = -2.79874e-07
GAMGPCG:  Solving for p_rgh, Initial residual = 0.00436005, Final residual = 3.41157e-07, No Iterations 4
diagonal:  Solving for rho, Initial residual = 0, Final residual = 0, No Iterations 0
time step continuity errors : sum local = 1.04327e-08, global = 2.52673e-10, cumulative = -2.79621e-07
DILUPBiCGStab:  Solving for omega, Initial residual = 0.000114009, Final residual = 1.45687e-09, No Iterations 2
DILUPBiCGStab:  Solving for k, Initial residual = 0.00503194, Final residual = 3.10074e-09, No Iterations 3

ExecutionTime = 2.42 s  ClockTime = 2 s

    Overall     = 0.00152478, 0.01
Time = 268

diagonal:  Solving for rho, Initial residual = 0, Final residual = 0, No Iterations 0

Execution time for mesh.update() = 0 s

DILUPBiCGStab:  Solving for Ux, Initial residual = 0.00485132, Final residual = 5.55102e-09, No Iterations 3
DILUPBiCGStab:  Solving for Uy, Initial residual = 0.00828778, Final residual = 7.14591e-09, No Iterations 3
DILUPBiCGStab:  Solving for O2, Initial residual = 0.00409667, Final residual = 3.49132e-09, No Iterations 3
DILUPBiCGStab:  Solving for H2O, Initial residual = 0.00409667, Final residual = 3.49135e-09, No Iterations 3
DILUPBiCGStab:  Solving for CH4, Initial residual = 0, Final residual = 0, No Iterations 0
DILUPBiCGStab:  Solving for CO2, Initial residual = 0.00409667, Final residual = 3.49135e-09, No Iterations 3
DILUPBiCGStab:  Solving for h, Initial residual = 0.00457031, Final residual = 2.76761e-09, No Iterations 3
min/max(T) = 300, 1044.97
GAMGPCG:  Solving for p_rgh, Initial residual = 0.0260778, Final residual = 2.07678e-07, No Iterations 5
diagonal:  Solving for rho, Initial residual = 0, Final residual = 0, No Iterations 0
time step continuity errors : sum local = 6.73707e-09, global = 9.55761e-11, cumulative = -2.79525e-07
GAMGPCG:  Solving for p_rgh, Initial residual = 0.00425932, Final residual = 3.56082e-07, No Iterations 4
diagonal:  Solving for rho, Initial residual = 0, Final residual = 0, No Iterations 0
time step continuity errors : sum local = 1.07454e-08, global = 7.69197e-10, cumulative = -2.78756e-07
DILUPBiCGStab:  Solving for omega, Initial residual = 0.000113645, Final residual = 1.44123e-09, No Iterations 2
DILUPBiCGStab:  Solving for k, Initial residual = 0.00501374, Final residual = 3.04895e-09, No Iterations 3

ExecutionTime = 2.54 s  ClockTime = 2 s

    Overall     = 0.00152505, 0.01
Time = 269

diagonal:  Solving for rho, Initial residual = 0, Final residual = 0, No Iterations 0

Execution time for mesh.update() = 0 s

DILUPBiCGStab:  Solving for Ux, Initial residual = 0.00481314, Final residual = 4.78152e-09, No Iterations 3
DILUPBiCGStab:  Solving for Uy, Initial residual = 0.00825329, Final residual = 6.99102e-09, No Iterations 3
DILUPBiCGStab:  Solving for O2, Initial residual = 0.00408496, Final residual = 3.45208e-09, No Iterations 3
DILUPBiCGStab:  Solving for H2O, Initial residual = 0.00408496, Final residual = 3.45209e-09, No Iterations 3
DILUPBiCGStab:  Solving for CH4, Initial residual = 0, Final residual = 0, No Iterations 0
DILUPBiCGStab:  Solving for CO2, Initial residual = 0.00408496, Final residual = 3.45209e-09, No Iterations 3
DILUPBiCGStab:  Solving for h, Initial residual = 0.00455358, Final residual = 2.6118e-09, No Iterations 3
min/max(T) = 300, 1044.97
GAMGPCG:  Solving for p_rgh, Initial residual = 0.0258186, Final residual = 2.03422e-07, No Iterations 5
diagonal:  Solving for rho, Initial residual = 0, Final residual = 0, No Iterations 0
time step continuity errors : sum local = 6.66552e-09, global = 2.77084e-10, cumulative = -2.78479e-07
GAMGPCG:  Solving for p_rgh, Initial residual = 0.00405115, Final residual = 4.02379e-07, No Iterations 4
diagonal:  Solving for rho, Initial residual = 0, Final residual = 0, No Iterations 0
time step continuity errors : sum local = 1.21515e-08, global = 7.47938e-10, cumulative = -2.77731e-07
DILUPBiCGStab:  Solving for omega, Initial residual = 0.000113204, Final residual = 1.44878e-09, No Iterations 2
DILUPBiCGStab:  Solving for k, Initial residual = 0.00499244, Final residual = 3.00029e-09, No Iterations 3

ExecutionTime = 2.66 s  ClockTime = 2 s

    Overall     = 0.00152242, 0.01
Time = 270

diagonal:  Solving for rho, Initial residual = 0, Final residual = 0, No Iterations 0

Execution time for mesh.update() = 0 s

DILUPBiCGStab:  Solving for Ux, Initial residual = 0.00478597, Final residual = 5.20533e-09, No Iterations 3
DILUPBiCGStab:  Solving for Uy, Initial residual = 0.00817261, Final residual = 6.98002e-09, No Iterations 3
GAMGPCG:  Solving for G, Initial residual = 0.139243, Final residual = 2.7762e-05, No Iterations 7
DILUPBiCGStab:  Solving for O2, Initial residual = 0.00407763, Final residual = 3.26574e-09, No Iterations 3
DILUPBiCGStab:  Solving for H2O, Initial residual = 0.00407763, Final residual = 3.26574e-09, No Iterations 3
DILUPBiCGStab:  Solving for CH4, Initial residual = 0, Final residual = 0, No Iterations 0
DILUPBiCGStab:  Solving for CO2, Initial residual = 0.00407763, Final residual = 3.26574e-09, No Iterations 3
DILUPBiCGStab:  Solving for h, Initial residual = 0.00454354, Final residual = 2.40235e-09, No Iterations 3
min/max(T) = 300, 1044.97
GAMGPCG:  Solving for p_rgh, Initial residual = 0.0251006, Final residual = 2.04961e-07, No Iterations 5
diagonal:  Solving for rho, Initial residual = 0, Final residual = 0, No Iterations 0
time step continuity errors : sum local = 6.66693e-09, global = 1.73569e-10, cumulative = -2.77558e-07
GAMGPCG:  Solving for p_rgh, Initial residual = 0.00398169, Final residual = 4.69603e-07, No Iterations 4
diagonal:  Solving for rho, Initial residual = 0, Final residual = 0, No Iterations 0
time step continuity errors : sum local = 1.41971e-08, global = 8.78642e-10, cumulative = -2.76679e-07
DILUPBiCGStab:  Solving for omega, Initial residual = 0.00011279, Final residual = 1.39782e-09, No Iterations 2
DILUPBiCGStab:  Solving for k, Initial residual = 0.00496706, Final residual = 2.96588e-09, No Iterations 3

ExecutionTime = 2.91 s  ClockTime = 3 s

    Overall     = 0.0015183, 0.01
Time = 271

diagonal:  Solving for rho, Initial residual = 0, Final residual = 0, No Iterations 0

Execution time for mesh.update() = 0 s

DILUPBiCGStab:  Solving for Ux, Initial residual = 0.00476778, Final residual = 5.43677e-09, No Iterations 3
DILUPBiCGStab:  Solving for Uy, Initial residual = 0.00816815, Final residual = 7.29603e-09, No Iterations 3
DILUPBiCGStab:  Solving for O2, Initial residual = 0.00407231, Final residual = 3.24057e-09, No Iterations 3
DILUPBiCGStab:  Solving for H2O, Initial residual = 0.00407231, Final residual = 3.24056e-09, No Iterations 3
DILUPBiCGStab:  Solving for CH4, Initial residual = 0, Final residual = 0, No Iterations 0
DILUPBiCGStab:  Solving for CO2, Initial residual = 0.00407231, Final residual = 3.24056e-09, No Iterations 3
DILUPBiCGStab:  Solving for h, Initial residual = 0.00453522, Final residual = 2.40778e-09, No Iterations 3
min/max(T) = 300, 1044.97
GAMGPCG:  Solving for p_rgh, Initial residual = 0.0250779, Final residual = 1.67913e-07, No Iterations 5
diagonal:  Solving for rho, Initial residual = 0, Final residual = 0, No Iterations 0
time step continuity errors : sum local = 5.44876e-09, global = 5.6074e-10, cumulative = -2.76118e-07
GAMGPCG:  Solving for p_rgh, Initial residual = 0.00383674, Final residual = 5.2826e-07, No Iterations 4
diagonal:  Solving for rho, Initial residual = 0, Final residual = 0, No Iterations 0
time step continuity errors : sum local = 1.58346e-08, global = 7.28477e-10, cumulative = -2.7539e-07
DILUPBiCGStab:  Solving for omega, Initial residual = 0.000111888, Final residual = 1.36224e-09, No Iterations 2
DILUPBiCGStab:  Solving for k, Initial residual = 0.00493413, Final residual = 2.97761e-09, No Iterations 3

ExecutionTime = 3.03 s  ClockTime = 3 s

    Overall     = 0.00151337, 0.01
Time = 272

diagonal:  Solving for rho, Initial residual = 0, Final residual = 0, No Iterations 0

Execution time for mesh.update() = 0 s

DILUPBiCGStab:  Solving for Ux, Initial residual = 0.0047371, Final residual = 5.52833e-09, No Iterations 3
DILUPBiCGStab:  Solving for Uy, Initial residual = 0.00810511, Final residual = 7.20445e-09, No Iterations 3
DILUPBiCGStab:  Solving for O2, Initial residual = 0.00405461, Final residual = 3.36538e-09, No Iterations 3
DILUPBiCGStab:  Solving for H2O, Initial residual = 0.00405461, Final residual = 3.36536e-09, No Iterations 3
DILUPBiCGStab:  Solving for CH4, Initial residual = 0, Final residual = 0, No Iterations 0
DILUPBiCGStab:  Solving for CO2, Initial residual = 0.00405461, Final residual = 3.36536e-09, No Iterations 3
DILUPBiCGStab:  Solving for h, Initial residual = 0.00451447, Final residual = 2.49681e-09, No Iterations 3
min/max(T) = 300, 1044.97
GAMGPCG:  Solving for p_rgh, Initial residual = 0.0245417, Final residual = 1.86315e-07, No Iterations 5
diagonal:  Solving for rho, Initial residual = 0, Final residual = 0, No Iterations 0
time step continuity errors : sum local = 5.97213e-09, global = 5.12848e-10, cumulative = -2.74877e-07
GAMGPCG:  Solving for p_rgh, Initial residual = 0.00372398, Final residual = 5.57335e-07, No Iterations 4
diagonal:  Solving for rho, Initial residual = 0, Final residual = 0, No Iterations 0
time step continuity errors : sum local = 1.66002e-08, global = 7.81122e-10, cumulative = -2.74096e-07
DILUPBiCGStab:  Solving for omega, Initial residual = 0.0001111, Final residual = 1.34097e-09, No Iterations 2
DILUPBiCGStab:  Solving for k, Initial residual = 0.0049109, Final residual = 2.82093e-09, No Iterations 3

ExecutionTime = 3.15 s  ClockTime = 3 s

    Overall     = 0.00150971, 0.01
Time = 273

diagonal:  Solving for rho, Initial residual = 0, Final residual = 0, No Iterations 0

Execution time for mesh.update() = 0 s

DILUPBiCGStab:  Solving for Ux, Initial residual = 0.00471671, Final residual = 5.49725e-09, No Iterations 3
DILUPBiCGStab:  Solving for Uy, Initial residual = 0.00807442, Final residual = 7.32441e-09, No Iterations 3
DILUPBiCGStab:  Solving for O2, Initial residual = 0.00404984, Final residual = 3.43332e-09, No Iterations 3
DILUPBiCGStab:  Solving for H2O, Initial residual = 0.00404984, Final residual = 3.4333e-09, No Iterations 3
DILUPBiCGStab:  Solving for CH4, Initial residual = 0, Final residual = 0, No Iterations 0
DILUPBiCGStab:  Solving for CO2, Initial residual = 0.00404984, Final residual = 3.4333e-09, No Iterations 3
DILUPBiCGStab:  Solving for h, Initial residual = 0.00450932, Final residual = 2.58214e-09, No Iterations 3
min/max(T) = 300, 1044.97
GAMGPCG:  Solving for p_rgh, Initial residual = 0.0245224, Final residual = 1.57516e-07, No Iterations 5
diagonal:  Solving for rho, Initial residual = 0, Final residual = 0, No Iterations 0
time step continuity errors : sum local = 4.93026e-09, global = 4.19389e-10, cumulative = -2.73676e-07
GAMGPCG:  Solving for p_rgh, Initial residual = 0.00371066, Final residual = 5.83716e-07, No Iterations 4
diagonal:  Solving for rho, Initial residual = 0, Final residual = 0, No Iterations 0
time step continuity errors : sum local = 1.71414e-08, global = 6.99686e-10, cumulative = -2.72977e-07
DILUPBiCGStab:  Solving for omega, Initial residual = 0.000110827, Final residual = 1.33389e-09, No Iterations 2
DILUPBiCGStab:  Solving for k, Initial residual = 0.00488425, Final residual = 2.65498e-09, No Iterations 3

ExecutionTime = 3.26 s  ClockTime = 3 s

    Overall     = 0.0015079, 0.01
Time = 274

diagonal:  Solving for rho, Initial residual = 0, Final residual = 0, No Iterations 0

Execution time for mesh.update() = 0 s

DILUPBiCGStab:  Solving for Ux, Initial residual = 0.00470727, Final residual = 5.4302e-09, No Iterations 3
DILUPBiCGStab:  Solving for Uy, Initial residual = 0.00804897, Final residual = 7.14184e-09, No Iterations 3
DILUPBiCGStab:  Solving for O2, Initial residual = 0.00403166, Final residual = 3.4908e-09, No Iterations 3
DILUPBiCGStab:  Solving for H2O, Initial residual = 0.00403166, Final residual = 3.49078e-09, No Iterations 3
DILUPBiCGStab:  Solving for CH4, Initial residual = 0, Final residual = 0, No Iterations 0
DILUPBiCGStab:  Solving for CO2, Initial residual = 0.00403166, Final residual = 3.49078e-09, No Iterations 3
DILUPBiCGStab:  Solving for h, Initial residual = 0.00448583, Final residual = 2.74478e-09, No Iterations 3
min/max(T) = 300, 1044.97
GAMGPCG:  Solving for p_rgh, Initial residual = 0.0244329, Final residual = 1.63288e-07, No Iterations 5
diagonal:  Solving for rho, Initial residual = 0, Final residual = 0, No Iterations 0
time step continuity errors : sum local = 5.09305e-09, global = -1.17108e-09, cumulative = -2.74148e-07
GAMGPCG:  Solving for p_rgh, Initial residual = 0.00362974, Final residual = 5.7868e-07, No Iterations 4
diagonal:  Solving for rho, Initial residual = 0, Final residual = 0, No Iterations 0
time step continuity errors : sum local = 1.68551e-08, global = 7.25948e-10, cumulative = -2.73422e-07
DILUPBiCGStab:  Solving for omega, Initial residual = 0.000110012, Final residual = 1.35059e-09, No Iterations 2
DILUPBiCGStab:  Solving for k, Initial residual = 0.00485188, Final residual = 2.48059e-09, No Iterations 3

ExecutionTime = 3.38 s  ClockTime = 3 s

    Overall     = 0.00150711, 0.01
Time = 275

diagonal:  Solving for rho, Initial residual = 0, Final residual = 0, No Iterations 0

Execution time for mesh.update() = 0 s

DILUPBiCGStab:  Solving for Ux, Initial residual = 0.0046939, Final residual = 5.61014e-09, No Iterations 3
DILUPBiCGStab:  Solving for Uy, Initial residual = 0.00799738, Final residual = 7.09487e-09, No Iterations 3
DILUPBiCGStab:  Solving for O2, Initial residual = 0.00402167, Final residual = 3.50868e-09, No Iterations 3
DILUPBiCGStab:  Solving for H2O, Initial residual = 0.00402167, Final residual = 3.50866e-09, No Iterations 3
DILUPBiCGStab:  Solving for CH4, Initial residual = 0, Final residual = 0, No Iterations 0
DILUPBiCGStab:  Solving for CO2, Initial residual = 0.00402167, Final residual = 3.50866e-09, No Iterations 3
DILUPBiCGStab:  Solving for h, Initial residual = 0.00447188, Final residual = 2.80171e-09, No Iterations 3
min/max(T) = 300, 1044.97
GAMGPCG:  Solving for p_rgh, Initial residual = 0.0236049, Final residual = 2.12571e-07, No Iterations 5
diagonal:  Solving for rho, Initial residual = 0, Final residual = 0, No Iterations 0
time step continuity errors : sum local = 6.63461e-09, global = 1.35204e-10, cumulative = -2.73287e-07
GAMGPCG:  Solving for p_rgh, Initial residual = 0.0036455, Final residual = 5.75764e-07, No Iterations 4
diagonal:  Solving for rho, Initial residual = 0, Final residual = 0, No Iterations 0
time step continuity errors : sum local = 1.66818e-08, global = 8.16512e-10, cumulative = -2.7247e-07
DILUPBiCGStab:  Solving for omega, Initial residual = 0.000109133, Final residual = 1.33921e-09, No Iterations 2
DILUPBiCGStab:  Solving for k, Initial residual = 0.00482238, Final residual = 2.3759e-09, No Iterations 3

ExecutionTime = 3.5 s  ClockTime = 3 s

    Overall     = 0.00150726, 0.01
Time = 276

diagonal:  Solving for rho, Initial residual = 0, Final residual = 0, No Iterations 0

Execution time for mesh.update() = 0 s

DILUPBiCGStab:  Solving for Ux, Initial residual = 0.00467076, Final residual = 5.32853e-09, No Iterations 3
DILUPBiCGStab:  Solving for Uy, Initial residual = 0.0079351, Final residual = 6.63589e-09, No Iterations 3
DILUPBiCGStab:  Solving for O2, Initial residual = 0.0040118, Final residual = 3.41945e-09, No Iterations 3
DILUPBiCGStab:  Solving for H2O, Initial residual = 0.0040118, Final residual = 3.41943e-09, No Iterations 3
DILUPBiCGStab:  Solving for CH4, Initial residual = 0, Final residual = 0, No Iterations 0
DILUPBiCGStab:  Solving for CO2, Initial residual = 0.0040118, Final residual = 3.41943e-09, No Iterations 3
DILUPBiCGStab:  Solving for h, Initial residual = 0.00446083, Final residual = 2.62845e-09, No Iterations 3
min/max(T) = 300, 1044.97
GAMGPCG:  Solving for p_rgh, Initial residual = 0.0238069, Final residual = 1.94226e-07, No Iterations 5
diagonal:  Solving for rho, Initial residual = 0, Final residual = 0, No Iterations 0
time step continuity errors : sum local = 5.9846e-09, global = -1.27024e-09, cumulative = -2.7374e-07
GAMGPCG:  Solving for p_rgh, Initial residual = 0.00346965, Final residual = 6.21801e-07, No Iterations 4
diagonal:  Solving for rho, Initial residual = 0, Final residual = 0, No Iterations 0
time step continuity errors : sum local = 1.76954e-08, global = 1.06327e-09, cumulative = -2.72677e-07
DILUPBiCGStab:  Solving for omega, Initial residual = 0.000108327, Final residual = 1.31614e-09, No Iterations 2
DILUPBiCGStab:  Solving for k, Initial residual = 0.00481179, Final residual = 2.29679e-09, No Iterations 3

ExecutionTime = 3.62 s  ClockTime = 3 s

    Overall     = 0.00150799, 0.01
Time = 277

diagonal:  Solving for rho, Initial residual = 0, Final residual = 0, No Iterations 0

Execution time for mesh.update() = 0 s

DILUPBiCGStab:  Solving for Ux, Initial residual = 0.00464487, Final residual = 5.76777e-09, No Iterations 3
DILUPBiCGStab:  Solving for Uy, Initial residual = 0.00791946, Final residual = 7.05024e-09, No Iterations 3
DILUPBiCGStab:  Solving for O2, Initial residual = 0.00399709, Final residual = 3.3345e-09, No Iterations 3
DILUPBiCGStab:  Solving for H2O, Initial residual = 0.00399709, Final residual = 3.33448e-09, No Iterations 3
DILUPBiCGStab:  Solving for CH4, Initial residual = 0, Final residual = 0, No Iterations 0
DILUPBiCGStab:  Solving for CO2, Initial residual = 0.0039971, Final residual = 3.33448e-09, No Iterations 3
DILUPBiCGStab:  Solving for h, Initial residual = 0.00444166, Final residual = 2.69752e-09, No Iterations 3
min/max(T) = 300, 1044.97
GAMGPCG:  Solving for p_rgh, Initial residual = 0.0231882, Final residual = 1.59616e-07, No Iterations 5
diagonal:  Solving for rho, Initial residual = 0, Final residual = 0, No Iterations 0
time step continuity errors : sum local = 4.75081e-09, global = 1.67058e-10, cumulative = -2.7251e-07
GAMGPCG:  Solving for p_rgh, Initial residual = 0.00344857, Final residual = 6.20794e-07, No Iterations 4
diagonal:  Solving for rho, Initial residual = 0, Final residual = 0, No Iterations 0
time step continuity errors : sum local = 1.7597e-08, global = 1.11897e-09, cumulative = -2.71391e-07
DILUPBiCGStab:  Solving for omega, Initial residual = 0.000107194, Final residual = 1.2995e-09, No Iterations 2
DILUPBiCGStab:  Solving for k, Initial residual = 0.00478743, Final residual = 2.22743e-09, No Iterations 3

ExecutionTime = 3.74 s  ClockTime = 4 s

    Overall     = 0.00150752, 0.01
Time = 278

diagonal:  Solving for rho, Initial residual = 0, Final residual = 0, No Iterations 0

Execution time for mesh.update() = 0 s

DILUPBiCGStab:  Solving for Ux, Initial residual = 0.00464031, Final residual = 5.57575e-09, No Iterations 3
DILUPBiCGStab:  Solving for Uy, Initial residual = 0.00792543, Final residual = 6.59965e-09, No Iterations 3
DILUPBiCGStab:  Solving for O2, Initial residual = 0.00398538, Final residual = 3.19038e-09, No Iterations 3
DILUPBiCGStab:  Solving for H2O, Initial residual = 0.00398538, Final residual = 3.19037e-09, No Iterations 3
DILUPBiCGStab:  Solving for CH4, Initial residual = 0, Final residual = 0, No Iterations 0
DILUPBiCGStab:  Solving for CO2, Initial residual = 0.00398538, Final residual = 3.19037e-09, No Iterations 3
DILUPBiCGStab:  Solving for h, Initial residual = 0.0044267, Final residual = 2.36691e-09, No Iterations 3
min/max(T) = 300, 1044.97
GAMGPCG:  Solving for p_rgh, Initial residual = 0.0226146, Final residual = 2.13571e-07, No Iterations 5
diagonal:  Solving for rho, Initial residual = 0, Final residual = 0, No Iterations 0
time step continuity errors : sum local = 6.53253e-09, global = -1.01838e-09, cumulative = -2.72409e-07
GAMGPCG:  Solving for p_rgh, Initial residual = 0.00336811, Final residual = 6.63693e-07, No Iterations 4
diagonal:  Solving for rho, Initial residual = 0, Final residual = 0, No Iterations 0
time step continuity errors : sum local = 1.87559e-08, global = 1.37438e-09, cumulative = -2.71035e-07
DILUPBiCGStab:  Solving for omega, Initial residual = 0.000107116, Final residual = 1.29901e-09, No Iterations 2
DILUPBiCGStab:  Solving for k, Initial residual = 0.00476174, Final residual = 2.02145e-09, No Iterations 3

ExecutionTime = 3.86 s  ClockTime = 4 s

    Overall     = 0.00150716, 0.01
Time = 279

diagonal:  Solving for rho, Initial residual = 0, Final residual = 0, No Iterations 0

Execution time for mesh.update() = 0 s

DILUPBiCGStab:  Solving for Ux, Initial residual = 0.0046321, Final residual = 5.56903e-09, No Iterations 3
DILUPBiCGStab:  Solving for Uy, Initial residual = 0.00790118, Final residual = 7.0057e-09, No Iterations 3
DILUPBiCGStab:  Solving for O2, Initial residual = 0.00396955, Final residual = 3.08455e-09, No Iterations 3
DILUPBiCGStab:  Solving for H2O, Initial residual = 0.00396955, Final residual = 3.08453e-09, No Iterations 3
DILUPBiCGStab:  Solving for CH4, Initial residual = 0, Final residual = 0, No Iterations 0
DILUPBiCGStab:  Solving for CO2, Initial residual = 0.00396955, Final residual = 3.08453e-09, No Iterations 3
DILUPBiCGStab:  Solving for h, Initial residual = 0.00440782, Final residual = 2.29201e-09, No Iterations 3
min/max(T) = 300, 1044.97
GAMGPCG:  Solving for p_rgh, Initial residual = 0.0224949, Final residual = 2.58251e-07, No Iterations 5
diagonal:  Solving for rho, Initial residual = 0, Final residual = 0, No Iterations 0
time step continuity errors : sum local = 7.87055e-09, global = -9.73871e-10, cumulative = -2.72009e-07
GAMGPCG:  Solving for p_rgh, Initial residual = 0.00342031, Final residual = 6.90311e-07, No Iterations 4
diagonal:  Solving for rho, Initial residual = 0, Final residual = 0, No Iterations 0
time step continuity errors : sum local = 1.96814e-08, global = 1.71444e-09, cumulative = -2.70294e-07
DILUPBiCGStab:  Solving for omega, Initial residual = 0.000106816, Final residual = 1.29187e-09, No Iterations 2
DILUPBiCGStab:  Solving for k, Initial residual = 0.00474054, Final residual = 1.94341e-09, No Iterations 3

ExecutionTime = 3.97 s  ClockTime = 4 s

    Overall     = 0.00150642, 0.01
Time = 280

diagonal:  Solving for rho, Initial residual = 0, Final residual = 0, No Iterations 0

Execution time for mesh.update() = 0 s

DILUPBiCGStab:  Solving for Ux, Initial residual = 0.0046235, Final residual = 5.22765e-09, No Iterations 3
DILUPBiCGStab:  Solving for Uy, Initial residual = 0.00788328, Final residual = 6.42676e-09, No Iterations 3
GAMGPCG:  Solving for G, Initial residual = 0.128452, Final residual = 5.8925e-05, No Iterations 6
DILUPBiCGStab:  Solving for O2, Initial residual = 0.00395362, Final residual = 3.17286e-09, No Iterations 3
DILUPBiCGStab:  Solving for H2O, Initial residual = 0.00395362, Final residual = 3.17284e-09, No Iterations 3
DILUPBiCGStab:  Solving for CH4, Initial residual = 0, Final residual = 0, No Iterations 0
DILUPBiCGStab:  Solving for CO2, Initial residual = 0.00395362, Final residual = 3.17284e-09, No Iterations 3
DILUPBiCGStab:  Solving for h, Initial residual = 0.00438468, Final residual = 2.2746e-09, No Iterations 3
min/max(T) = 300, 1044.97
GAMGPCG:  Solving for p_rgh, Initial residual = 0.0220966, Final residual = 2.43198e-07, No Iterations 5
diagonal:  Solving for rho, Initial residual = 0, Final residual = 0, No Iterations 0
time step continuity errors : sum local = 7.40413e-09, global = -1.00437e-09, cumulative = -2.71299e-07
GAMGPCG:  Solving for p_rgh, Initial residual = 0.00335344, Final residual = 6.7762e-07, No Iterations 4
diagonal:  Solving for rho, Initial residual = 0, Final residual = 0, No Iterations 0
time step continuity errors : sum local = 1.92431e-08, global = 1.67758e-09, cumulative = -2.69621e-07
DILUPBiCGStab:  Solving for omega, Initial residual = 0.000106525, Final residual = 1.3199e-09, No Iterations 2
DILUPBiCGStab:  Solving for k, Initial residual = 0.00471085, Final residual = 1.88865e-09, No Iterations 3

ExecutionTime = 4.24 s  ClockTime = 4 s

    Overall     = 0.00150557, 0.01
Time = 281

diagonal:  Solving for rho, Initial residual = 0, Final residual = 0, No Iterations 0

Execution time for mesh.update() = 0 s

DILUPBiCGStab:  Solving for Ux, Initial residual = 0.00460759, Final residual = 5.55705e-09, No Iterations 3
DILUPBiCGStab:  Solving for Uy, Initial residual = 0.0078722, Final residual = 6.86751e-09, No Iterations 3
DILUPBiCGStab:  Solving for O2, Initial residual = 0.00394099, Final residual = 3.04695e-09, No Iterations 3
DILUPBiCGStab:  Solving for H2O, Initial residual = 0.00394099, Final residual = 3.04694e-09, No Iterations 3
DILUPBiCGStab:  Solving for CH4, Initial residual = 0, Final residual = 0, No Iterations 0
DILUPBiCGStab:  Solving for CO2, Initial residual = 0.00394099, Final residual = 3.04694e-09, No Iterations 3
DILUPBiCGStab:  Solving for h, Initial residual = 0.00436796, Final residual = 2.23341e-09, No Iterations 3
min/max(T) = 300, 1044.97
GAMGPCG:  Solving for p_rgh, Initial residual = 0.0222741, Final residual = 2.5686e-07, No Iterations 5
diagonal:  Solving for rho, Initial residual = 0, Final residual = 0, No Iterations 0
time step continuity errors : sum local = 7.77706e-09, global = -9.22568e-10, cumulative = -2.70544e-07
GAMGPCG:  Solving for p_rgh, Initial residual = 0.00334227, Final residual = 6.90009e-07, No Iterations 4
diagonal:  Solving for rho, Initial residual = 0, Final residual = 0, No Iterations 0
time step continuity errors : sum local = 1.95834e-08, global = 1.75666e-09, cumulative = -2.68787e-07
DILUPBiCGStab:  Solving for omega, Initial residual = 0.000105534, Final residual = 1.39023e-09, No Iterations 2
DILUPBiCGStab:  Solving for k, Initial residual = 0.00468363, Final residual = 1.76763e-09, No Iterations 3

ExecutionTime = 4.35 s  ClockTime = 4 s

    Overall     = 0.00150665, 0.01
Time = 282

diagonal:  Solving for rho, Initial residual = 0, Final residual = 0, No Iterations 0

Execution time for mesh.update() = 0 s

DILUPBiCGStab:  Solving for Ux, Initial residual = 0.00459317, Final residual = 5.23798e-09, No Iterations 3
DILUPBiCGStab:  Solving for Uy, Initial residual = 0.00785261, Final residual = 6.79662e-09, No Iterations 3
DILUPBiCGStab:  Solving for O2, Initial residual = 0.00393015, Final residual = 3.08825e-09, No Iterations 3
DILUPBiCGStab:  Solving for H2O, Initial residual = 0.00393015, Final residual = 3.08824e-09, No Iterations 3
DILUPBiCGStab:  Solving for CH4, Initial residual = 0, Final residual = 0, No Iterations 0
DILUPBiCGStab:  Solving for CO2, Initial residual = 0.00393015, Final residual = 3.08824e-09, No Iterations 3
DILUPBiCGStab:  Solving for h, Initial residual = 0.0043568, Final residual = 2.242e-09, No Iterations 3
min/max(T) = 300, 1044.97
GAMGPCG:  Solving for p_rgh, Initial residual = 0.0221681, Final residual = 3.6174e-07, No Iterations 5
diagonal:  Solving for rho, Initial residual = 0, Final residual = 0, No Iterations 0
time step continuity errors : sum local = 1.059e-08, global = -1.0206e-09, cumulative = -2.69808e-07
GAMGPCG:  Solving for p_rgh, Initial residual = 0.00332019, Final residual = 7.22949e-07, No Iterations 4
diagonal:  Solving for rho, Initial residual = 0, Final residual = 0, No Iterations 0
time step continuity errors : sum local = 2.02146e-08, global = 1.95909e-09, cumulative = -2.67849e-07
DILUPBiCGStab:  Solving for omega, Initial residual = 0.000104072, Final residual = 1.51717e-09, No Iterations 2
DILUPBiCGStab:  Solving for k, Initial residual = 0.00465168, Final residual = 1.65056e-09, No Iterations 3

ExecutionTime = 4.47 s  ClockTime = 4 s

    Overall     = 0.00150821, 0.01
Time = 283

diagonal:  Solving for rho, Initial residual = 0, Final residual = 0, No Iterations 0

Execution time for mesh.update() = 0 s

DILUPBiCGStab:  Solving for Ux, Initial residual = 0.00457053, Final residual = 5.47143e-09, No Iterations 3
DILUPBiCGStab:  Solving for Uy, Initial residual = 0.00783709, Final residual = 7.59355e-09, No Iterations 3
DILUPBiCGStab:  Solving for O2, Initial residual = 0.00392143, Final residual = 3.07414e-09, No Iterations 3
DILUPBiCGStab:  Solving for H2O, Initial residual = 0.00392143, Final residual = 3.07413e-09, No Iterations 3
DILUPBiCGStab:  Solving for CH4, Initial residual = 0, Final residual = 0, No Iterations 0
DILUPBiCGStab:  Solving for CO2, Initial residual = 0.00392143, Final residual = 3.07414e-09, No Iterations 3
DILUPBiCGStab:  Solving for h, Initial residual = 0.00434654, Final residual = 2.33641e-09, No Iterations 3
min/max(T) = 300, 1044.97
GAMGPCG:  Solving for p_rgh, Initial residual = 0.0218498, Final residual = 4.13124e-07, No Iterations 5
diagonal:  Solving for rho, Initial residual = 0, Final residual = 0, No Iterations 0
time step continuity errors : sum local = 1.1986e-08, global = -8.39814e-10, cumulative = -2.68688e-07
GAMGPCG:  Solving for p_rgh, Initial residual = 0.00329647, Final residual = 7.04656e-07, No Iterations 4
diagonal:  Solving for rho, Initial residual = 0, Final residual = 0, No Iterations 0
time step continuity errors : sum local = 1.97413e-08, global = 2.05564e-09, cumulative = -2.66633e-07
DILUPBiCGStab:  Solving for omega, Initial residual = 0.000102857, Final residual = 1.60812e-09, No Iterations 2
DILUPBiCGStab:  Solving for k, Initial residual = 0.00462036, Final residual = 1.48039e-09, No Iterations 3

ExecutionTime = 4.59 s  ClockTime = 4 s

    Overall     = 0.00151113, 0.01
Time = 284

diagonal:  Solving for rho, Initial residual = 0, Final residual = 0, No Iterations 0

Execution time for mesh.update() = 0 s

DILUPBiCGStab:  Solving for Ux, Initial residual = 0.00455608, Final residual = 5.29095e-09, No Iterations 3
DILUPBiCGStab:  Solving for Uy, Initial residual = 0.00782651, Final residual = 7.38373e-09, No Iterations 3
DILUPBiCGStab:  Solving for O2, Initial residual = 0.00391605, Final residual = 3.14248e-09, No Iterations 3
DILUPBiCGStab:  Solving for H2O, Initial residual = 0.00391606, Final residual = 3.14246e-09, No Iterations 3
DILUPBiCGStab:  Solving for CH4, Initial residual = 0, Final residual = 0, No Iterations 0
DILUPBiCGStab:  Solving for CO2, Initial residual = 0.00391606, Final residual = 3.14247e-09, No Iterations 3
DILUPBiCGStab:  Solving for h, Initial residual = 0.00434233, Final residual = 2.40422e-09, No Iterations 3
min/max(T) = 300, 1044.97
GAMGPCG:  Solving for p_rgh, Initial residual = 0.0217526, Final residual = 4.07564e-07, No Iterations 5
diagonal:  Solving for rho, Initial residual = 0, Final residual = 0, No Iterations 0
time step continuity errors : sum local = 1.18997e-08, global = -1.18599e-09, cumulative = -2.67819e-07
GAMGPCG:  Solving for p_rgh, Initial residual = 0.00329054, Final residual = 7.13524e-07, No Iterations 4
diagonal:  Solving for rho, Initial residual = 0, Final residual = 0, No Iterations 0
time step continuity errors : sum local = 1.98836e-08, global = 2.23197e-09, cumulative = -2.65587e-07
DILUPBiCGStab:  Solving for omega, Initial residual = 0.000102261, Final residual = 1.68479e-09, No Iterations 2
DILUPBiCGStab:  Solving for k, Initial residual = 0.00458746, Final residual = 1.43957e-09, No Iterations 3

ExecutionTime = 4.71 s  ClockTime = 4 s

    Overall     = 0.0015134, 0.01
Time = 285

diagonal:  Solving for rho, Initial residual = 0, Final residual = 0, No Iterations 0

Execution time for mesh.update() = 0 s

DILUPBiCGStab:  Solving for Ux, Initial residual = 0.00454853, Final residual = 5.80968e-09, No Iterations 3
DILUPBiCGStab:  Solving for Uy, Initial residual = 0.00780906, Final residual = 8.07049e-09, No Iterations 3
DILUPBiCGStab:  Solving for O2, Initial residual = 0.0039085, Final residual = 3.50706e-09, No Iterations 3
DILUPBiCGStab:  Solving for H2O, Initial residual = 0.0039085, Final residual = 3.50705e-09, No Iterations 3
DILUPBiCGStab:  Solving for CH4, Initial residual = 0, Final residual = 0, No Iterations 0
DILUPBiCGStab:  Solving for CO2, Initial residual = 0.0039085, Final residual = 3.50705e-09, No Iterations 3
DILUPBiCGStab:  Solving for h, Initial residual = 0.0043334, Final residual = 2.80464e-09, No Iterations 3
min/max(T) = 300, 1044.97
GAMGPCG:  Solving for p_rgh, Initial residual = 0.0219848, Final residual = 3.85631e-07, No Iterations 5
diagonal:  Solving for rho, Initial residual = 0, Final residual = 0, No Iterations 0
time step continuity errors : sum local = 1.1145e-08, global = -7.26218e-10, cumulative = -2.66313e-07
GAMGPCG:  Solving for p_rgh, Initial residual = 0.00327731, Final residual = 7.11413e-07, No Iterations 4
diagonal:  Solving for rho, Initial residual = 0, Final residual = 0, No Iterations 0
time step continuity errors : sum local = 1.96355e-08, global = 2.38831e-09, cumulative = -2.63925e-07
DILUPBiCGStab:  Solving for omega, Initial residual = 0.000102566, Final residual = 1.71975e-09, No Iterations 2
DILUPBiCGStab:  Solving for k, Initial residual = 0.00456093, Final residual = 1.34577e-09, No Iterations 3

ExecutionTime = 4.83 s  ClockTime = 5 s

    Overall     = 0.00151578, 0.01
Time = 286

diagonal:  Solving for rho, Initial residual = 0, Final residual = 0, No Iterations 0

Execution time for mesh.update() = 0 s

DILUPBiCGStab:  Solving for Ux, Initial residual = 0.00453291, Final residual = 5.74698e-09, No Iterations 3
DILUPBiCGStab:  Solving for Uy, Initial residual = 0.00784312, Final residual = 7.94781e-09, No Iterations 3
DILUPBiCGStab:  Solving for O2, Initial residual = 0.00389033, Final residual = 3.64455e-09, No Iterations 3
DILUPBiCGStab:  Solving for H2O, Initial residual = 0.00389033, Final residual = 3.64454e-09, No Iterations 3
DILUPBiCGStab:  Solving for CH4, Initial residual = 0, Final residual = 0, No Iterations 0
DILUPBiCGStab:  Solving for CO2, Initial residual = 0.00389033, Final residual = 3.64454e-09, No Iterations 3
DILUPBiCGStab:  Solving for h, Initial residual = 0.00431143, Final residual = 2.93149e-09, No Iterations 3
min/max(T) = 300, 1044.97
GAMGPCG:  Solving for p_rgh, Initial residual = 0.0221692, Final residual = 4.32889e-07, No Iterations 5
diagonal:  Solving for rho, Initial residual = 0, Final residual = 0, No Iterations 0
time step continuity errors : sum local = 1.24926e-08, global = -9.81579e-10, cumulative = -2.64906e-07
GAMGPCG:  Solving for p_rgh, Initial residual = 0.00330643, Final residual = 7.233e-07, No Iterations 4
diagonal:  Solving for rho, Initial residual = 0, Final residual = 0, No Iterations 0
time step continuity errors : sum local = 1.99639e-08, global = 2.70925e-09, cumulative = -2.62197e-07
DILUPBiCGStab:  Solving for omega, Initial residual = 0.000102049, Final residual = 1.7668e-09, No Iterations 2
DILUPBiCGStab:  Solving for k, Initial residual = 0.00453776, Final residual = 1.4328e-09, No Iterations 3

ExecutionTime = 4.95 s  ClockTime = 5 s

    Overall     = 0.00151758, 0.01
Time = 287

diagonal:  Solving for rho, Initial residual = 0, Final residual = 0, No Iterations 0

Execution time for mesh.update() = 0 s

DILUPBiCGStab:  Solving for Ux, Initial residual = 0.00453312, Final residual = 6.55404e-09, No Iterations 3
DILUPBiCGStab:  Solving for Uy, Initial residual = 0.00783533, Final residual = 8.75878e-09, No Iterations 3
DILUPBiCGStab:  Solving for O2, Initial residual = 0.00388306, Final residual = 3.62868e-09, No Iterations 3
DILUPBiCGStab:  Solving for H2O, Initial residual = 0.00388306, Final residual = 3.62868e-09, No Iterations 3
DILUPBiCGStab:  Solving for CH4, Initial residual = 0, Final residual = 0, No Iterations 0
DILUPBiCGStab:  Solving for CO2, Initial residual = 0.00388306, Final residual = 3.62868e-09, No Iterations 3
DILUPBiCGStab:  Solving for h, Initial residual = 0.00430541, Final residual = 3.06721e-09, No Iterations 3
min/max(T) = 300, 1044.97
GAMGPCG:  Solving for p_rgh, Initial residual = 0.0223616, Final residual = 4.85525e-07, No Iterations 5
diagonal:  Solving for rho, Initial residual = 0, Final residual = 0, No Iterations 0
time step continuity errors : sum local = 1.40796e-08, global = -1.34187e-09, cumulative = -2.63539e-07
GAMGPCG:  Solving for p_rgh, Initial residual = 0.00330055, Final residual = 7.17009e-07, No Iterations 4
diagonal:  Solving for rho, Initial residual = 0, Final residual = 0, No Iterations 0
time step continuity errors : sum local = 1.98171e-08, global = 2.81958e-09, cumulative = -2.60719e-07
DILUPBiCGStab:  Solving for omega, Initial residual = 0.000102093, Final residual = 1.76195e-09, No Iterations 2
DILUPBiCGStab:  Solving for k, Initial residual = 0.00451324, Final residual = 1.49458e-09, No Iterations 3

ExecutionTime = 5.07 s  ClockTime = 5 s

    Overall     = 0.00151901, 0.01
Time = 288

diagonal:  Solving for rho, Initial residual = 0, Final residual = 0, No Iterations 0

Execution time for mesh.update() = 0 s

DILUPBiCGStab:  Solving for Ux, Initial residual = 0.00454137, Final residual = 6.49254e-09, No Iterations 3
DILUPBiCGStab:  Solving for Uy, Initial residual = 0.00783916, Final residual = 8.22793e-09, No Iterations 3
DILUPBiCGStab:  Solving for O2, Initial residual = 0.00387433, Final residual = 3.5228e-09, No Iterations 3
DILUPBiCGStab:  Solving for H2O, Initial residual = 0.00387433, Final residual = 3.52278e-09, No Iterations 3
DILUPBiCGStab:  Solving for CH4, Initial residual = 0, Final residual = 0, No Iterations 0
DILUPBiCGStab:  Solving for CO2, Initial residual = 0.00387433, Final residual = 3.52279e-09, No Iterations 3
DILUPBiCGStab:  Solving for h, Initial residual = 0.00429529, Final residual = 2.90161e-09, No Iterations 3
min/max(T) = 300, 1044.97
GAMGPCG:  Solving for p_rgh, Initial residual = 0.0226136, Final residual = 3.94552e-07, No Iterations 5
diagonal:  Solving for rho, Initial residual = 0, Final residual = 0, No Iterations 0
time step continuity errors : sum local = 1.13569e-08, global = -8.60112e-10, cumulative = -2.61579e-07
GAMGPCG:  Solving for p_rgh, Initial residual = 0.00338251, Final residual = 6.97866e-07, No Iterations 4
diagonal:  Solving for rho, Initial residual = 0, Final residual = 0, No Iterations 0
time step continuity errors : sum local = 1.91504e-08, global = 2.77077e-09, cumulative = -2.58809e-07
DILUPBiCGStab:  Solving for omega, Initial residual = 0.000101516, Final residual = 1.6084e-09, No Iterations 2
DILUPBiCGStab:  Solving for k, Initial residual = 0.00448583, Final residual = 1.50525e-09, No Iterations 3

ExecutionTime = 5.18 s  ClockTime = 5 s

    Overall     = 0.00152215, 0.01
Time = 289

diagonal:  Solving for rho, Initial residual = 0, Final residual = 0, No Iterations 0

Execution time for mesh.update() = 0 s

DILUPBiCGStab:  Solving for Ux, Initial residual = 0.00455456, Final residual = 6.90756e-09, No Iterations 3
DILUPBiCGStab:  Solving for Uy, Initial residual = 0.00782986, Final residual = 8.91726e-09, No Iterations 3
DILUPBiCGStab:  Solving for O2, Initial residual = 0.00386722, Final residual = 3.51766e-09, No Iterations 3
DILUPBiCGStab:  Solving for H2O, Initial residual = 0.00386721, Final residual = 3.51765e-09, No Iterations 3
DILUPBiCGStab:  Solving for CH4, Initial residual = 0, Final residual = 0, No Iterations 0
DILUPBiCGStab:  Solving for CO2, Initial residual = 0.00386721, Final residual = 3.51765e-09, No Iterations 3
DILUPBiCGStab:  Solving for h, Initial residual = 0.00428733, Final residual = 3.03458e-09, No Iterations 3
min/max(T) = 300, 1044.97
GAMGPCG:  Solving for p_rgh, Initial residual = 0.0227343, Final residual = 4.57733e-07, No Iterations 5
diagonal:  Solving for rho, Initial residual = 0, Final residual = 0, No Iterations 0
time step continuity errors : sum local = 1.31306e-08, global = -1.06653e-09, cumulative = -2.59875e-07
GAMGPCG:  Solving for p_rgh, Initial residual = 0.00341594, Final residual = 6.95249e-07, No Iterations 4
diagonal:  Solving for rho, Initial residual = 0, Final residual = 0, No Iterations 0
time step continuity errors : sum local = 1.91462e-08, global = 2.81852e-09, cumulative = -2.57057e-07
DILUPBiCGStab:  Solving for omega, Initial residual = 0.000101288, Final residual = 1.5349e-09, No Iterations 2
DILUPBiCGStab:  Solving for k, Initial residual = 0.00447145, Final residual = 1.55411e-09, No Iterations 3

ExecutionTime = 5.3 s  ClockTime = 5 s

    Overall     = 0.00152613, 0.01
Time = 290

diagonal:  Solving for rho, Initial residual = 0, Final residual = 0, No Iterations 0

Execution time for mesh.update() = 0 s

DILUPBiCGStab:  Solving for Ux, Initial residual = 0.00453884, Final residual = 6.28574e-09, No Iterations 3
DILUPBiCGStab:  Solving for Uy, Initial residual = 0.00783843, Final residual = 8.56265e-09, No Iterations 3
GAMGPCG:  Solving for G, Initial residual = 0.124379, Final residual = 6.2403e-05, No Iterations 6
DILUPBiCGStab:  Solving for O2, Initial residual = 0.00385549, Final residual = 3.49228e-09, No Iterations 3
DILUPBiCGStab:  Solving for H2O, Initial residual = 0.00385549, Final residual = 3.49227e-09, No Iterations 3
DILUPBiCGStab:  Solving for CH4, Initial residual = 0, Final residual = 0, No Iterations 0
DILUPBiCGStab:  Solving for CO2, Initial residual = 0.00385549, Final residual = 3.49227e-09, No Iterations 3
DILUPBiCGStab:  Solving for h, Initial residual = 0.00427569, Final residual = 2.94282e-09, No Iterations 3
min/max(T) = 300, 1044.97
GAMGPCG:  Solving for p_rgh, Initial residual = 0.0229997, Final residual = 4.07189e-07, No Iterations 5
diagonal:  Solving for rho, Initial residual = 0, Final residual = 0, No Iterations 0
time step continuity errors : sum local = 1.1775e-08, global = -1.58624e-09, cumulative = -2.58643e-07
GAMGPCG:  Solving for p_rgh, Initial residual = 0.00341316, Final residual = 6.80275e-07, No Iterations 4
diagonal:  Solving for rho, Initial residual = 0, Final residual = 0, No Iterations 0
time step continuity errors : sum local = 1.8523e-08, global = 2.78443e-09, cumulative = -2.55859e-07
DILUPBiCGStab:  Solving for omega, Initial residual = 0.000100532, Final residual = 1.63215e-09, No Iterations 2
DILUPBiCGStab:  Solving for k, Initial residual = 0.00445256, Final residual = 1.6101e-09, No Iterations 3

ExecutionTime = 5.55 s  ClockTime = 5 s

    Overall     = 0.00153145, 0.01
Time = 291

diagonal:  Solving for rho, Initial residual = 0, Final residual = 0, No Iterations 0

Execution time for mesh.update() = 0 s

DILUPBiCGStab:  Solving for Ux, Initial residual = 0.00453142, Final residual = 6.81078e-09, No Iterations 3
DILUPBiCGStab:  Solving for Uy, Initial residual = 0.00780846, Final residual = 8.92533e-09, No Iterations 3
DILUPBiCGStab:  Solving for O2, Initial residual = 0.00384725, Final residual = 3.33233e-09, No Iterations 3
DILUPBiCGStab:  Solving for H2O, Initial residual = 0.00384725, Final residual = 3.33232e-09, No Iterations 3
DILUPBiCGStab:  Solving for CH4, Initial residual = 0, Final residual = 0, No Iterations 0
DILUPBiCGStab:  Solving for CO2, Initial residual = 0.00384725, Final residual = 3.33232e-09, No Iterations 3
DILUPBiCGStab:  Solving for h, Initial residual = 0.00426451, Final residual = 2.94394e-09, No Iterations 3
min/max(T) = 300, 1044.97
GAMGPCG:  Solving for p_rgh, Initial residual = 0.022842, Final residual = 4.25097e-07, No Iterations 5
diagonal:  Solving for rho, Initial residual = 0, Final residual = 0, No Iterations 0
time step continuity errors : sum local = 1.2068e-08, global = -9.05097e-10, cumulative = -2.56764e-07
GAMGPCG:  Solving for p_rgh, Initial residual = 0.0034769, Final residual = 6.35227e-07, No Iterations 4
diagonal:  Solving for rho, Initial residual = 0, Final residual = 0, No Iterations 0
time step continuity errors : sum local = 1.72855e-08, global = 2.66182e-09, cumulative = -2.54102e-07
DILUPBiCGStab:  Solving for omega, Initial residual = 0.000100122, Final residual = 1.7907e-09, No Iterations 2
DILUPBiCGStab:  Solving for k, Initial residual = 0.00443426, Final residual = 1.80122e-09, No Iterations 3

ExecutionTime = 5.67 s  ClockTime = 5 s

    Overall     = 0.00153632, 0.01
Time = 292

diagonal:  Solving for rho, Initial residual = 0, Final residual = 0, No Iterations 0

Execution time for mesh.update() = 0 s

DILUPBiCGStab:  Solving for Ux, Initial residual = 0.00450721, Final residual = 6.50276e-09, No Iterations 3
DILUPBiCGStab:  Solving for Uy, Initial residual = 0.00779906, Final residual = 8.33942e-09, No Iterations 3
DILUPBiCGStab:  Solving for O2, Initial residual = 0.003832, Final residual = 3.5156e-09, No Iterations 3
DILUPBiCGStab:  Solving for H2O, Initial residual = 0.003832, Final residual = 3.51558e-09, No Iterations 3
DILUPBiCGStab:  Solving for CH4, Initial residual = 0, Final residual = 0, No Iterations 0
DILUPBiCGStab:  Solving for CO2, Initial residual = 0.003832, Final residual = 3.51558e-09, No Iterations 3
DILUPBiCGStab:  Solving for h, Initial residual = 0.00424658, Final residual = 3.04334e-09, No Iterations 3
min/max(T) = 300, 1044.97
GAMGPCG:  Solving for p_rgh, Initial residual = 0.0230554, Final residual = 3.54958e-07, No Iterations 5
diagonal:  Solving for rho, Initial residual = 0, Final residual = 0, No Iterations 0
time step continuity errors : sum local = 1.03016e-08, global = -1.38851e-09, cumulative = -2.5549e-07
GAMGPCG:  Solving for p_rgh, Initial residual = 0.00337213, Final residual = 6.3408e-07, No Iterations 4
diagonal:  Solving for rho, Initial residual = 0, Final residual = 0, No Iterations 0
time step continuity errors : sum local = 1.71493e-08, global = 2.70972e-09, cumulative = -2.52781e-07
DILUPBiCGStab:  Solving for omega, Initial residual = 9.91633e-05, Final residual = 1.86029e-09, No Iterations 2
DILUPBiCGStab:  Solving for k, Initial residual = 0.00441281, Final residual = 1.99797e-09, No Iterations 3

ExecutionTime = 5.79 s  ClockTime = 6 s

    Overall     = 0.00153882, 0.01
Time = 293

diagonal:  Solving for rho, Initial residual = 0, Final residual = 0, No Iterations 0

[...]

Execution time for mesh.update() = 0 s

DILUPBiCGStab:  Solving for Ux, Initial residual = 0.00268755, Final residual = 2.92785e-09, No Iterations 3
DILUPBiCGStab:  Solving for Uy, Initial residual = 0.00242735, Final residual = 1.97529e-09, No Iterations 3
GAMGPCG:  Solving for G, Initial residual = 0.122747, Final residual = 4.0482e-05, No Iterations 6
DILUPBiCGStab:  Solving for O2, Initial residual = 0.00159973, Final residual = 3.51212e-09, No Iterations 3
DILUPBiCGStab:  Solving for H2O, Initial residual = 0.00159973, Final residual = 3.51212e-09, No Iterations 3
DILUPBiCGStab:  Solving for CH4, Initial residual = 0, Final residual = 0, No Iterations 0
DILUPBiCGStab:  Solving for CO2, Initial residual = 0.00159973, Final residual = 3.51212e-09, No Iterations 3
DILUPBiCGStab:  Solving for h, Initial residual = 0.00192404, Final residual = 3.1661e-09, No Iterations 3
min/max(T) = 300, 1044.97
GAMGPCG:  Solving for p_rgh, Initial residual = 0.0301502, Final residual = 9.74622e-07, No Iterations 4
diagonal:  Solving for rho, Initial residual = 0, Final residual = 0, No Iterations 0
time step continuity errors : sum local = 1.40501e-08, global = 1.98044e-09, cumulative = 2.52054e-07
GAMGPCG:  Solving for p_rgh, Initial residual = 0.00485698, Final residual = 2.44842e-07, No Iterations 4
diagonal:  Solving for rho, Initial residual = 0, Final residual = 0, No Iterations 0
time step continuity errors : sum local = 3.49762e-09, global = -1.78999e-10, cumulative = 2.51875e-07
DILUPBiCGStab:  Solving for omega, Initial residual = 4.56179e-05, Final residual = 8.57467e-09, No Iterations 2
DILUPBiCGStab:  Solving for k, Initial residual = 0.00202115, Final residual = 1.77284e-09, No Iterations 3

ExecutionTime = 288.62 s  ClockTime = 288 s

    Overall     = 0.00143826, 0.01
Time = 2491

diagonal:  Solving for rho, Initial residual = 0, Final residual = 0, No Iterations 0

Execution time for mesh.update() = 0 s

DILUPBiCGStab:  Solving for Ux, Initial residual = 0.00267291, Final residual = 3.89696e-09, No Iterations 3
DILUPBiCGStab:  Solving for Uy, Initial residual = 0.00242163, Final residual = 5.26475e-09, No Iterations 3
DILUPBiCGStab:  Solving for O2, Initial residual = 0.00157812, Final residual = 2.8956e-09, No Iterations 3
DILUPBiCGStab:  Solving for H2O, Initial residual = 0.00157812, Final residual = 2.8956e-09, No Iterations 3
DILUPBiCGStab:  Solving for CH4, Initial residual = 0, Final residual = 0, No Iterations 0
DILUPBiCGStab:  Solving for CO2, Initial residual = 0.00157812, Final residual = 2.8956e-09, No Iterations 3
DILUPBiCGStab:  Solving for h, Initial residual = 0.00189799, Final residual = 3.46358e-09, No Iterations 3
min/max(T) = 300, 1044.97
GAMGPCG:  Solving for p_rgh, Initial residual = 0.0290846, Final residual = 5.17275e-07, No Iterations 4
diagonal:  Solving for rho, Initial residual = 0, Final residual = 0, No Iterations 0
time step continuity errors : sum local = 7.92796e-09, global = -6.40051e-10, cumulative = 2.51235e-07
GAMGPCG:  Solving for p_rgh, Initial residual = 0.00512214, Final residual = 1.57819e-07, No Iterations 4
diagonal:  Solving for rho, Initial residual = 0, Final residual = 0, No Iterations 0
time step continuity errors : sum local = 2.33568e-09, global = 3.8833e-10, cumulative = 2.51623e-07
DILUPBiCGStab:  Solving for omega, Initial residual = 4.60117e-05, Final residual = 8.80325e-09, No Iterations 2
DILUPBiCGStab:  Solving for k, Initial residual = 0.00200649, Final residual = 1.71751e-09, No Iterations 3

ExecutionTime = 288.73 s  ClockTime = 289 s

    Overall     = 0.00140596, 0.01
Time = 2492

diagonal:  Solving for rho, Initial residual = 0, Final residual = 0, No Iterations 0

Execution time for mesh.update() = 0 s

DILUPBiCGStab:  Solving for Ux, Initial residual = 0.00263972, Final residual = 2.66289e-09, No Iterations 3
DILUPBiCGStab:  Solving for Uy, Initial residual = 0.00240358, Final residual = 1.9886e-09, No Iterations 3
DILUPBiCGStab:  Solving for O2, Initial residual = 0.00161183, Final residual = 3.28166e-09, No Iterations 3
DILUPBiCGStab:  Solving for H2O, Initial residual = 0.00161183, Final residual = 3.28166e-09, No Iterations 3
DILUPBiCGStab:  Solving for CH4, Initial residual = 0, Final residual = 0, No Iterations 0
DILUPBiCGStab:  Solving for CO2, Initial residual = 0.00161183, Final residual = 3.28166e-09, No Iterations 3
DILUPBiCGStab:  Solving for h, Initial residual = 0.00193844, Final residual = 3.13378e-09, No Iterations 3
min/max(T) = 300, 1044.97
GAMGPCG:  Solving for p_rgh, Initial residual = 0.0277883, Final residual = 8.45978e-07, No Iterations 4
diagonal:  Solving for rho, Initial residual = 0, Final residual = 0, No Iterations 0
time step continuity errors : sum local = 1.21566e-08, global = 8.98502e-10, cumulative = 2.52522e-07
GAMGPCG:  Solving for p_rgh, Initial residual = 0.00476707, Final residual = 1.98365e-07, No Iterations 4
diagonal:  Solving for rho, Initial residual = 0, Final residual = 0, No Iterations 0
time step continuity errors : sum local = 2.87099e-09, global = 3.2583e-10, cumulative = 2.52848e-07
DILUPBiCGStab:  Solving for omega, Initial residual = 4.65003e-05, Final residual = 8.51955e-09, No Iterations 2
DILUPBiCGStab:  Solving for k, Initial residual = 0.00200727, Final residual = 1.65002e-09, No Iterations 3

ExecutionTime = 288.84 s  ClockTime = 289 s

    Overall     = 0.00143781, 0.01
Time = 2493

diagonal:  Solving for rho, Initial residual = 0, Final residual = 0, No Iterations 0

Execution time for mesh.update() = 0.01 s

DILUPBiCGStab:  Solving for Ux, Initial residual = 0.00260908, Final residual = 4.06021e-09, No Iterations 3
DILUPBiCGStab:  Solving for Uy, Initial residual = 0.00234393, Final residual = 2.68641e-09, No Iterations 3
DILUPBiCGStab:  Solving for O2, Initial residual = 0.00156924, Final residual = 2.2622e-09, No Iterations 3
DILUPBiCGStab:  Solving for H2O, Initial residual = 0.00156924, Final residual = 2.2622e-09, No Iterations 3
DILUPBiCGStab:  Solving for CH4, Initial residual = 0, Final residual = 0, No Iterations 0
DILUPBiCGStab:  Solving for CO2, Initial residual = 0.00156924, Final residual = 2.2622e-09, No Iterations 3
DILUPBiCGStab:  Solving for h, Initial residual = 0.00188921, Final residual = 2.79016e-09, No Iterations 3
min/max(T) = 300, 1044.97
GAMGPCG:  Solving for p_rgh, Initial residual = 0.0305236, Final residual = 6.39239e-07, No Iterations 4
diagonal:  Solving for rho, Initial residual = 0, Final residual = 0, No Iterations 0
time step continuity errors : sum local = 9.96208e-09, global = 3.20501e-10, cumulative = 2.53168e-07
GAMGPCG:  Solving for p_rgh, Initial residual = 0.00483193, Final residual = 9.12876e-07, No Iterations 3
diagonal:  Solving for rho, Initial residual = 0, Final residual = 0, No Iterations 0
time step continuity errors : sum local = 1.36842e-08, global = 4.23905e-09, cumulative = 2.57407e-07
DILUPBiCGStab:  Solving for omega, Initial residual = 4.60496e-05, Final residual = 8.24862e-09, No Iterations 2
DILUPBiCGStab:  Solving for k, Initial residual = 0.00198421, Final residual = 1.57684e-09, No Iterations 3

ExecutionTime = 288.96 s  ClockTime = 289 s

    Overall     = 0.0014092, 0.01
Time = 2494

diagonal:  Solving for rho, Initial residual = 0, Final residual = 0, No Iterations 0

Execution time for mesh.update() = 0 s

DILUPBiCGStab:  Solving for Ux, Initial residual = 0.00262371, Final residual = 2.5703e-09, No Iterations 3
DILUPBiCGStab:  Solving for Uy, Initial residual = 0.00236153, Final residual = 2.27175e-09, No Iterations 3
DILUPBiCGStab:  Solving for O2, Initial residual = 0.00157022, Final residual = 1.65226e-09, No Iterations 3
DILUPBiCGStab:  Solving for H2O, Initial residual = 0.00157022, Final residual = 1.65226e-09, No Iterations 3
DILUPBiCGStab:  Solving for CH4, Initial residual = 0, Final residual = 0, No Iterations 0
DILUPBiCGStab:  Solving for CO2, Initial residual = 0.00157022, Final residual = 1.65226e-09, No Iterations 3
DILUPBiCGStab:  Solving for h, Initial residual = 0.00189017, Final residual = 2.17713e-09, No Iterations 3
min/max(T) = 300, 1044.97
GAMGPCG:  Solving for p_rgh, Initial residual = 0.029214, Final residual = 4.85308e-07, No Iterations 4
diagonal:  Solving for rho, Initial residual = 0, Final residual = 0, No Iterations 0
time step continuity errors : sum local = 7.17694e-09, global = 6.59996e-10, cumulative = 2.58067e-07
GAMGPCG:  Solving for p_rgh, Initial residual = 0.00484935, Final residual = 7.85685e-07, No Iterations 3
diagonal:  Solving for rho, Initial residual = 0, Final residual = 0, No Iterations 0
time step continuity errors : sum local = 1.13698e-08, global = 2.63177e-09, cumulative = 2.60699e-07
DILUPBiCGStab:  Solving for omega, Initial residual = 4.58225e-05, Final residual = 8.06625e-09, No Iterations 2
DILUPBiCGStab:  Solving for k, Initial residual = 0.00198444, Final residual = 1.64293e-09, No Iterations 3

ExecutionTime = 289.07 s  ClockTime = 289 s

    Overall     = 0.00144965, 0.01
Time = 2495

diagonal:  Solving for rho, Initial residual = 0, Final residual = 0, No Iterations 0

Execution time for mesh.update() = 0 s

DILUPBiCGStab:  Solving for Ux, Initial residual = 0.00259886, Final residual = 3.47888e-09, No Iterations 3
DILUPBiCGStab:  Solving for Uy, Initial residual = 0.00232948, Final residual = 2.17676e-09, No Iterations 3
DILUPBiCGStab:  Solving for O2, Initial residual = 0.0015875, Final residual = 3.01913e-09, No Iterations 3
DILUPBiCGStab:  Solving for H2O, Initial residual = 0.0015875, Final residual = 3.01913e-09, No Iterations 3
DILUPBiCGStab:  Solving for CH4, Initial residual = 0, Final residual = 0, No Iterations 0
DILUPBiCGStab:  Solving for CO2, Initial residual = 0.0015875, Final residual = 3.01913e-09, No Iterations 3
DILUPBiCGStab:  Solving for h, Initial residual = 0.00191309, Final residual = 2.84959e-09, No Iterations 3
min/max(T) = 300, 1044.97
GAMGPCG:  Solving for p_rgh, Initial residual = 0.028442, Final residual = 5.13959e-07, No Iterations 4
diagonal:  Solving for rho, Initial residual = 0, Final residual = 0, No Iterations 0
time step continuity errors : sum local = 7.70891e-09, global = -8.21764e-11, cumulative = 2.60617e-07
GAMGPCG:  Solving for p_rgh, Initial residual = 0.00497843, Final residual = 9.04473e-07, No Iterations 3
diagonal:  Solving for rho, Initial residual = 0, Final residual = 0, No Iterations 0
time step continuity errors : sum local = 1.37265e-08, global = 5.00991e-09, cumulative = 2.65627e-07
DILUPBiCGStab:  Solving for omega, Initial residual = 4.50096e-05, Final residual = 7.55322e-09, No Iterations 2
DILUPBiCGStab:  Solving for k, Initial residual = 0.00196442, Final residual = 1.49726e-09, No Iterations 3

ExecutionTime = 289.18 s  ClockTime = 289 s

    Overall     = 0.00142806, 0.01
Time = 2496

diagonal:  Solving for rho, Initial residual = 0, Final residual = 0, No Iterations 0

Execution time for mesh.update() = 0 s

DILUPBiCGStab:  Solving for Ux, Initial residual = 0.00261308, Final residual = 5.01636e-09, No Iterations 3
DILUPBiCGStab:  Solving for Uy, Initial residual = 0.00235524, Final residual = 2.36322e-09, No Iterations 3
DILUPBiCGStab:  Solving for O2, Initial residual = 0.001536, Final residual = 2.26707e-09, No Iterations 3
DILUPBiCGStab:  Solving for H2O, Initial residual = 0.001536, Final residual = 2.26707e-09, No Iterations 3
DILUPBiCGStab:  Solving for CH4, Initial residual = 0, Final residual = 0, No Iterations 0
DILUPBiCGStab:  Solving for CO2, Initial residual = 0.001536, Final residual = 2.26707e-09, No Iterations 3
DILUPBiCGStab:  Solving for h, Initial residual = 0.00185486, Final residual = 2.6462e-09, No Iterations 3
min/max(T) = 300, 1044.97
GAMGPCG:  Solving for p_rgh, Initial residual = 0.0294231, Final residual = 8.41861e-07, No Iterations 4
diagonal:  Solving for rho, Initial residual = 0, Final residual = 0, No Iterations 0
time step continuity errors : sum local = 1.29146e-08, global = 2.85432e-09, cumulative = 2.68481e-07
GAMGPCG:  Solving for p_rgh, Initial residual = 0.00526222, Final residual = 1.99891e-07, No Iterations 4
diagonal:  Solving for rho, Initial residual = 0, Final residual = 0, No Iterations 0
time step continuity errors : sum local = 3.0659e-09, global = 4.62127e-10, cumulative = 2.68943e-07
DILUPBiCGStab:  Solving for omega, Initial residual = 4.46332e-05, Final residual = 7.57075e-09, No Iterations 2
DILUPBiCGStab:  Solving for k, Initial residual = 0.00196408, Final residual = 1.7915e-09, No Iterations 3

ExecutionTime = 289.29 s  ClockTime = 289 s

    Overall     = 0.00146714, 0.01
Time = 2497

diagonal:  Solving for rho, Initial residual = 0, Final residual = 0, No Iterations 0

Execution time for mesh.update() = 0.01 s

DILUPBiCGStab:  Solving for Ux, Initial residual = 0.00257517, Final residual = 7.60911e-09, No Iterations 3
DILUPBiCGStab:  Solving for Uy, Initial residual = 0.00231501, Final residual = 2.13457e-09, No Iterations 3
DILUPBiCGStab:  Solving for O2, Initial residual = 0.00156111, Final residual = 3.18813e-09, No Iterations 3
DILUPBiCGStab:  Solving for H2O, Initial residual = 0.00156111, Final residual = 3.18813e-09, No Iterations 3
DILUPBiCGStab:  Solving for CH4, Initial residual = 0, Final residual = 0, No Iterations 0
DILUPBiCGStab:  Solving for CO2, Initial residual = 0.00156111, Final residual = 3.18813e-09, No Iterations 3
DILUPBiCGStab:  Solving for h, Initial residual = 0.00188488, Final residual = 3.1144e-09, No Iterations 3
min/max(T) = 300, 1044.97
GAMGPCG:  Solving for p_rgh, Initial residual = 0.0295078, Final residual = 4.86783e-07, No Iterations 4
diagonal:  Solving for rho, Initial residual = 0, Final residual = 0, No Iterations 0
time step continuity errors : sum local = 7.50589e-09, global = -8.76654e-10, cumulative = 2.68067e-07
GAMGPCG:  Solving for p_rgh, Initial residual = 0.00489545, Final residual = 9.38848e-07, No Iterations 3
diagonal:  Solving for rho, Initial residual = 0, Final residual = 0, No Iterations 0
time step continuity errors : sum local = 1.4296e-08, global = 3.12943e-09, cumulative = 2.71196e-07
DILUPBiCGStab:  Solving for omega, Initial residual = 4.39757e-05, Final residual = 7.74828e-09, No Iterations 2
DILUPBiCGStab:  Solving for k, Initial residual = 0.00195971, Final residual = 2.56763e-09, No Iterations 3

ExecutionTime = 289.41 s  ClockTime = 289 s

    Overall     = 0.00144261, 0.01
Time = 2498

diagonal:  Solving for rho, Initial residual = 0, Final residual = 0, No Iterations 0

Execution time for mesh.update() = 0 s

DILUPBiCGStab:  Solving for Ux, Initial residual = 0.0026124, Final residual = 2.90147e-09, No Iterations 3
DILUPBiCGStab:  Solving for Uy, Initial residual = 0.00236208, Final residual = 2.12256e-09, No Iterations 3
DILUPBiCGStab:  Solving for O2, Initial residual = 0.00152541, Final residual = 3.28397e-09, No Iterations 3
DILUPBiCGStab:  Solving for H2O, Initial residual = 0.00152541, Final residual = 3.28397e-09, No Iterations 3
DILUPBiCGStab:  Solving for CH4, Initial residual = 0, Final residual = 0, No Iterations 0
DILUPBiCGStab:  Solving for CO2, Initial residual = 0.00152541, Final residual = 3.28397e-09, No Iterations 3
DILUPBiCGStab:  Solving for h, Initial residual = 0.0018411, Final residual = 3.27512e-09, No Iterations 3
min/max(T) = 300, 1044.97
GAMGPCG:  Solving for p_rgh, Initial residual = 0.0285771, Final residual = 9.22856e-07, No Iterations 4
diagonal:  Solving for rho, Initial residual = 0, Final residual = 0, No Iterations 0
time step continuity errors : sum local = 1.39016e-08, global = 2.11084e-09, cumulative = 2.73307e-07
GAMGPCG:  Solving for p_rgh, Initial residual = 0.00546982, Final residual = 2.08329e-07, No Iterations 4
diagonal:  Solving for rho, Initial residual = 0, Final residual = 0, No Iterations 0
time step continuity errors : sum local = 3.13786e-09, global = -6.93387e-11, cumulative = 2.73237e-07
DILUPBiCGStab:  Solving for omega, Initial residual = 4.42497e-05, Final residual = 8.30456e-09, No Iterations 2
DILUPBiCGStab:  Solving for k, Initial residual = 0.00196911, Final residual = 2.26117e-09, No Iterations 3

ExecutionTime = 289.53 s  ClockTime = 289 s

    Overall     = 0.0014823, 0.01
Time = 2499

diagonal:  Solving for rho, Initial residual = 0, Final residual = 0, No Iterations 0

Execution time for mesh.update() = 0 s

DILUPBiCGStab:  Solving for Ux, Initial residual = 0.00257406, Final residual = 2.081e-09, No Iterations 3
DILUPBiCGStab:  Solving for Uy, Initial residual = 0.00231048, Final residual = 3.00402e-09, No Iterations 3
DILUPBiCGStab:  Solving for O2, Initial residual = 0.00154493, Final residual = 3.25995e-09, No Iterations 3
DILUPBiCGStab:  Solving for H2O, Initial residual = 0.00154493, Final residual = 3.25994e-09, No Iterations 3
DILUPBiCGStab:  Solving for CH4, Initial residual = 0, Final residual = 0, No Iterations 0
DILUPBiCGStab:  Solving for CO2, Initial residual = 0.00154493, Final residual = 3.25994e-09, No Iterations 3
DILUPBiCGStab:  Solving for h, Initial residual = 0.00186398, Final residual = 3.27679e-09, No Iterations 3
min/max(T) = 300, 1044.97
GAMGPCG:  Solving for p_rgh, Initial residual = 0.0279598, Final residual = 4.8547e-07, No Iterations 4
diagonal:  Solving for rho, Initial residual = 0, Final residual = 0, No Iterations 0
time step continuity errors : sum local = 7.37072e-09, global = -4.14436e-10, cumulative = 2.72823e-07
GAMGPCG:  Solving for p_rgh, Initial residual = 0.00487435, Final residual = 1.88128e-07, No Iterations 4
diagonal:  Solving for rho, Initial residual = 0, Final residual = 0, No Iterations 0
time step continuity errors : sum local = 2.92523e-09, global = -7.36777e-11, cumulative = 2.72749e-07
DILUPBiCGStab:  Solving for omega, Initial residual = 4.35084e-05, Final residual = 8.19161e-09, No Iterations 2
DILUPBiCGStab:  Solving for k, Initial residual = 0.00195545, Final residual = 1.62156e-09, No Iterations 3

ExecutionTime = 289.64 s  ClockTime = 289 s

    Overall     = 0.00145774, 0.01
Time = 2500

diagonal:  Solving for rho, Initial residual = 0, Final residual = 0, No Iterations 0

Execution time for mesh.update() = 0 s

DILUPBiCGStab:  Solving for Ux, Initial residual = 0.00256242, Final residual = 1.90658e-09, No Iterations 3
DILUPBiCGStab:  Solving for Uy, Initial residual = 0.00230456, Final residual = 2.78205e-09, No Iterations 3
GAMGPCG:  Solving for G, Initial residual = 0.127701, Final residual = 3.52226e-05, No Iterations 6
DILUPBiCGStab:  Solving for O2, Initial residual = 0.00153598, Final residual = 3.49268e-09, No Iterations 3
DILUPBiCGStab:  Solving for H2O, Initial residual = 0.00153598, Final residual = 3.49268e-09, No Iterations 3
DILUPBiCGStab:  Solving for CH4, Initial residual = 0, Final residual = 0, No Iterations 0
DILUPBiCGStab:  Solving for CO2, Initial residual = 0.00153598, Final residual = 3.49268e-09, No Iterations 3
DILUPBiCGStab:  Solving for h, Initial residual = 0.00185476, Final residual = 3.19165e-09, No Iterations 3
min/max(T) = 300, 1044.97
GAMGPCG:  Solving for p_rgh, Initial residual = 0.0273097, Final residual = 7.98269e-07, No Iterations 4
diagonal:  Solving for rho, Initial residual = 0, Final residual = 0, No Iterations 0
time step continuity errors : sum local = 1.18642e-08, global = 1.69809e-09, cumulative = 2.74447e-07
GAMGPCG:  Solving for p_rgh, Initial residual = 0.00497626, Final residual = 1.72577e-07, No Iterations 4
diagonal:  Solving for rho, Initial residual = 0, Final residual = 0, No Iterations 0
time step continuity errors : sum local = 2.57143e-09, global = -2.56836e-10, cumulative = 2.74191e-07
DILUPBiCGStab:  Solving for omega, Initial residual = 4.32225e-05, Final residual = 9.05896e-09, No Iterations 2
DILUPBiCGStab:  Solving for k, Initial residual = 0.00195435, Final residual = 1.60536e-09, No Iterations 3

ExecutionTime = 289.89 s  ClockTime = 290 s


Patch Mean : 300.6
Patch Variance : 0.000372441
Patch Gradient : 0.0419907
End
