/*---------------------------------------------------------------------------*\
  =========                 |
  \\      /  F ield         | OpenFOAM: The Open Source CFD Toolbox
   \\    /   O peration     | Website:  https://openfoam.org
    \\  /    A nd           | Version:  dev
     \\/     M anipulation  |
\*---------------------------------------------------------------------------*/
Build  : dev-cabe48fb62c1
Exec   : fireDyMFoam
Date   : Apr 15 2019
Time   : 11:35:59
Host   : "Host"
PID    : 29271
I/O    : uncollated
Case   : /home/tesla/OpenFOAM/tesla-dev/run/rollerOpt_COBYLA_NEW
nProcs : 1
sigFpe : Enabling floating point exception trapping (FOAM_SIGFPE).
fileModificationChecking : Monitoring run-time modified files using timeStampMaster (fileModificationSkew 10)
allowSystemOperations : Allowing user-supplied system call operations

// * * * * * * * * * * * * * * * * * * * * * * * * * * * * * * * * * * * * * //
Create time

--> FOAM Warning : 
    From function void* Foam::dlOpen(const Foam::fileName&, bool)
    in file POSIX.C at line 1268
    dlopen error : libgroovyBC.so: cannot open shared object file: No such file or directory
--> FOAM Warning : 
    From function bool Foam::dlLibraryTable::open(const Foam::fileName&, bool)
    in file db/dynamicLibrary/dlLibraryTable/dlLibraryTable.C at line 105
    could not load "libgroovyBC.so"
Create mesh for time = 250

Selecting dynamicFvMesh dynamicRefineFvMesh
Detected 556 cells that are protected from refinement. Writing these to cellSet protectedCells.

PIMPLE: No convergence criteria found


PIMPLE: Operating solver in PISO mode


Initializing Solver

Selecting thermodynamics package 
{
    type            hePsiThermo;
    mixture         reactingMixture;
    transport       sutherland;
    thermo          janaf;
    energy          sensibleEnthalpy;
    equationOfState perfectGas;
    specie          specie;
}

Selecting chemistryReader foamChemistryReader
    elements not defined in "/home/tesla/OpenFOAM/tesla-dev/run/rollerOpt_COBYLA_NEW/constant/reactions"
Reading/calculating face flux field phi

No MRF models present

Selecting turbulence model type RAS
Selecting RAS turbulence model kOmegaSST
Selecting patchDistMethod meshWave
kOmegaSSTCoeffs
{
    delta           cubeRootVol;
    cubeRootVolCoeffs
    {
        deltaCoeff      1;
    }
    alphaK1         0.85;
    alphaK2         1;
    alphaOmega1     0.5;
    alphaOmega2     0.856;
    gamma1          0.555556;
    gamma2          0.44;
    beta1           0.075;
    beta2           0.0828;
    betaStar        0.09;
    a1              0.31;
    b1              1;
    c1              10;
    F3              false;
}

Selecting combustion model none<psiThermoCombustion>
--> FOAM Warning : 
    From function static Foam::autoPtr<T> Foam::combustionModel::New(typename CombustionModel::reactionThermo&, const Foam::compressibleTurbulenceModel&, const Foam::word&) [with CombustionModel = Foam::CombustionModel<Foam::psiReactionThermo>; typename CombustionModel::reactionThermo = Foam::psiReactionThermo]
    in file /home/tesla/OpenFOAM/OpenFOAM-dev/src/combustionModels/lnInclude/combustionModelTemplates.C at line 69
    Template parameters are no longer required when selecting a combustionModel. This information is now obtained directly from the thermodynamics. Actually selecting combustion model none.

Reading g

Reading hRef
Calculating field g.h


Reading pRef
Selecting radiationModel P1
Selecting absorptionEmissionModel greyMeanAbsorptionEmission
Selecting scatterModel none
Selecting sootModel none
Creating finite volume options from "system/fvOptions"

No finite volume options present
Using LTS

Starting time loop

Using dynamicCode for functionObject patchCalcs at line 64 in "/home/tesla/OpenFOAM/tesla-dev/run/rollerOpt_COBYLA_NEW/system/controlDict.functions.patchCalcs"
    Overall     = 0.00196273, 0.01
Time = 251

diagonal:  Solving for rho, Initial residual = 0, Final residual = 0, No Iterations 0

Execution time for mesh.update() = 0 s

DILUPBiCGStab:  Solving for Ux, Initial residual = 0.00827226, Final residual = 7.51556e-09, No Iterations 3
DILUPBiCGStab:  Solving for Uy, Initial residual = 0.00923698, Final residual = 7.49752e-09, No Iterations 3
GAMGPCG:  Solving for G, Initial residual = 0.036172, Final residual = 3.9976e-05, No Iterations 4
DILUPBiCGStab:  Solving for O2, Initial residual = 0.00514691, Final residual = 9.90181e-09, No Iterations 3
DILUPBiCGStab:  Solving for H2O, Initial residual = 0.00514684, Final residual = 9.86797e-09, No Iterations 3
DILUPBiCGStab:  Solving for CH4, Initial residual = 0, Final residual = 0, No Iterations 0
DILUPBiCGStab:  Solving for CO2, Initial residual = 0.00514684, Final residual = 9.86306e-09, No Iterations 3
DILUPBiCGStab:  Solving for h, Initial residual = 0.00593956, Final residual = 2.87002e-11, No Iterations 4
min/max(T) = 300, 1044.97
GAMGPCG:  Solving for p_rgh, Initial residual = 0.0239645, Final residual = 1.81165e-07, No Iterations 5
diagonal:  Solving for rho, Initial residual = 0, Final residual = 0, No Iterations 0
time step continuity errors : sum local = 2.4605e-06, global = -1.15666e-07, cumulative = -1.15666e-07
GAMGPCG:  Solving for p_rgh, Initial residual = 0.00365396, Final residual = 2.34331e-07, No Iterations 4
diagonal:  Solving for rho, Initial residual = 0, Final residual = 0, No Iterations 0
time step continuity errors : sum local = 2.45905e-06, global = -1.13485e-07, cumulative = -2.29151e-07
DILUPBiCGStab:  Solving for omega, Initial residual = 0.000173866, Final residual = 1.57496e-09, No Iterations 2
DILUPBiCGStab:  Solving for k, Initial residual = 0.00961549, Final residual = 4.40582e-09, No Iterations 3

ExecutionTime = 0.38 s  ClockTime = 0 s

    Overall     = 0.00196235, 0.01
Time = 252

diagonal:  Solving for rho, Initial residual = 0, Final residual = 0, No Iterations 0

Execution time for mesh.update() = 0 s

DILUPBiCGStab:  Solving for Ux, Initial residual = 0.00830802, Final residual = 8.71143e-09, No Iterations 3
DILUPBiCGStab:  Solving for Uy, Initial residual = 0.00920609, Final residual = 6.96864e-09, No Iterations 3
DILUPBiCGStab:  Solving for O2, Initial residual = 0.00515918, Final residual = 2.24909e-09, No Iterations 3
DILUPBiCGStab:  Solving for H2O, Initial residual = 0.00515913, Final residual = 2.24716e-09, No Iterations 3
DILUPBiCGStab:  Solving for CH4, Initial residual = 0, Final residual = 0, No Iterations 0
DILUPBiCGStab:  Solving for CO2, Initial residual = 0.00515913, Final residual = 2.24704e-09, No Iterations 3
DILUPBiCGStab:  Solving for h, Initial residual = 0.00596107, Final residual = 4.91869e-09, No Iterations 3
min/max(T) = 300, 1044.97
GAMGPCG:  Solving for p_rgh, Initial residual = 0.0237078, Final residual = 1.47692e-07, No Iterations 5
diagonal:  Solving for rho, Initial residual = 0, Final residual = 0, No Iterations 0
time step continuity errors : sum local = 1.23518e-08, global = -4.45842e-10, cumulative = -2.29597e-07
GAMGPCG:  Solving for p_rgh, Initial residual = 0.00365744, Final residual = 1.91389e-07, No Iterations 4
diagonal:  Solving for rho, Initial residual = 0, Final residual = 0, No Iterations 0
time step continuity errors : sum local = 1.53329e-08, global = 2.37995e-09, cumulative = -2.27217e-07
DILUPBiCGStab:  Solving for omega, Initial residual = 0.000174397, Final residual = 1.51e-09, No Iterations 2
DILUPBiCGStab:  Solving for k, Initial residual = 0.00967012, Final residual = 4.9544e-09, No Iterations 3

ExecutionTime = 0.51 s  ClockTime = 0 s

    Overall     = 0.00196749, 0.01
Time = 253

diagonal:  Solving for rho, Initial residual = 0, Final residual = 0, No Iterations 0

Execution time for mesh.update() = 0 s

DILUPBiCGStab:  Solving for Ux, Initial residual = 0.00833048, Final residual = 9.03084e-09, No Iterations 3
DILUPBiCGStab:  Solving for Uy, Initial residual = 0.00918374, Final residual = 7.80453e-09, No Iterations 3
DILUPBiCGStab:  Solving for O2, Initial residual = 0.00516042, Final residual = 1.27373e-09, No Iterations 3
DILUPBiCGStab:  Solving for H2O, Initial residual = 0.00516038, Final residual = 1.27341e-09, No Iterations 3
DILUPBiCGStab:  Solving for CH4, Initial residual = 0, Final residual = 0, No Iterations 0
DILUPBiCGStab:  Solving for CO2, Initial residual = 0.00516038, Final residual = 1.2734e-09, No Iterations 3
DILUPBiCGStab:  Solving for h, Initial residual = 0.00596776, Final residual = 2.44093e-09, No Iterations 3
min/max(T) = 300, 1044.97
GAMGPCG:  Solving for p_rgh, Initial residual = 0.0238734, Final residual = 2.07776e-07, No Iterations 5
diagonal:  Solving for rho, Initial residual = 0, Final residual = 0, No Iterations 0
time step continuity errors : sum local = 1.68901e-08, global = 7.26339e-11, cumulative = -2.27144e-07
GAMGPCG:  Solving for p_rgh, Initial residual = 0.0036241, Final residual = 1.98115e-07, No Iterations 4
diagonal:  Solving for rho, Initial residual = 0, Final residual = 0, No Iterations 0
time step continuity errors : sum local = 1.53512e-08, global = 2.08924e-09, cumulative = -2.25055e-07
DILUPBiCGStab:  Solving for omega, Initial residual = 0.000173609, Final residual = 1.48414e-09, No Iterations 2
DILUPBiCGStab:  Solving for k, Initial residual = 0.00970232, Final residual = 5.483e-09, No Iterations 3

ExecutionTime = 0.63 s  ClockTime = 0 s

    Overall     = 0.00196802, 0.01
Time = 254

diagonal:  Solving for rho, Initial residual = 0, Final residual = 0, No Iterations 0

Execution time for mesh.update() = 0 s

DILUPBiCGStab:  Solving for Ux, Initial residual = 0.00835169, Final residual = 9.70447e-09, No Iterations 3
DILUPBiCGStab:  Solving for Uy, Initial residual = 0.00913885, Final residual = 7.87431e-09, No Iterations 3
DILUPBiCGStab:  Solving for O2, Initial residual = 0.00518816, Final residual = 9.06191e-09, No Iterations 3
DILUPBiCGStab:  Solving for H2O, Initial residual = 0.00518813, Final residual = 9.0611e-09, No Iterations 3
DILUPBiCGStab:  Solving for CH4, Initial residual = 0, Final residual = 0, No Iterations 0
DILUPBiCGStab:  Solving for CO2, Initial residual = 0.00518813, Final residual = 9.06103e-09, No Iterations 3
DILUPBiCGStab:  Solving for h, Initial residual = 0.00599782, Final residual = 1.46332e-09, No Iterations 3
min/max(T) = 300, 1044.97
GAMGPCG:  Solving for p_rgh, Initial residual = 0.0244546, Final residual = 2.37548e-07, No Iterations 5
diagonal:  Solving for rho, Initial residual = 0, Final residual = 0, No Iterations 0
time step continuity errors : sum local = 1.93331e-08, global = 1.61994e-10, cumulative = -2.24893e-07
GAMGPCG:  Solving for p_rgh, Initial residual = 0.00358793, Final residual = 1.94813e-07, No Iterations 4
diagonal:  Solving for rho, Initial residual = 0, Final residual = 0, No Iterations 0
time step continuity errors : sum local = 1.5175e-08, global = 1.74187e-09, cumulative = -2.23151e-07
DILUPBiCGStab:  Solving for omega, Initial residual = 0.000174113, Final residual = 1.55825e-09, No Iterations 2
DILUPBiCGStab:  Solving for k, Initial residual = 0.00974383, Final residual = 5.82689e-09, No Iterations 3

ExecutionTime = 0.75 s  ClockTime = 0 s

    Overall     = 0.00197549, 0.01
Time = 255

diagonal:  Solving for rho, Initial residual = 0, Final residual = 0, No Iterations 0

Execution time for mesh.update() = 0 s

DILUPBiCGStab:  Solving for Ux, Initial residual = 0.00836985, Final residual = 9.47856e-09, No Iterations 3
DILUPBiCGStab:  Solving for Uy, Initial residual = 0.00912843, Final residual = 1.66343e-09, No Iterations 3
DILUPBiCGStab:  Solving for O2, Initial residual = 0.00520393, Final residual = 1.35744e-09, No Iterations 3
DILUPBiCGStab:  Solving for H2O, Initial residual = 0.00520391, Final residual = 1.35732e-09, No Iterations 3
DILUPBiCGStab:  Solving for CH4, Initial residual = 0, Final residual = 0, No Iterations 0
DILUPBiCGStab:  Solving for CO2, Initial residual = 0.00520391, Final residual = 1.35731e-09, No Iterations 3
DILUPBiCGStab:  Solving for h, Initial residual = 0.00600866, Final residual = 4.92099e-09, No Iterations 3
min/max(T) = 300, 1044.97
GAMGPCG:  Solving for p_rgh, Initial residual = 0.0239566, Final residual = 2.76528e-07, No Iterations 5
diagonal:  Solving for rho, Initial residual = 0, Final residual = 0, No Iterations 0
time step continuity errors : sum local = 2.193e-08, global = -1.6355e-10, cumulative = -2.23314e-07
GAMGPCG:  Solving for p_rgh, Initial residual = 0.00370901, Final residual = 1.78743e-07, No Iterations 4
diagonal:  Solving for rho, Initial residual = 0, Final residual = 0, No Iterations 0
time step continuity errors : sum local = 1.36721e-08, global = 1.90509e-09, cumulative = -2.21409e-07
DILUPBiCGStab:  Solving for omega, Initial residual = 0.000174429, Final residual = 1.59872e-09, No Iterations 2
DILUPBiCGStab:  Solving for k, Initial residual = 0.00975989, Final residual = 4.49855e-09, No Iterations 3

ExecutionTime = 0.87 s  ClockTime = 0 s

    Overall     = 0.00197613, 0.01
Time = 256

diagonal:  Solving for rho, Initial residual = 0, Final residual = 0, No Iterations 0

Execution time for mesh.update() = 0 s

DILUPBiCGStab:  Solving for Ux, Initial residual = 0.00835106, Final residual = 8.5907e-10, No Iterations 3
DILUPBiCGStab:  Solving for Uy, Initial residual = 0.00906391, Final residual = 1.40007e-09, No Iterations 3
DILUPBiCGStab:  Solving for O2, Initial residual = 0.00521137, Final residual = 1.26197e-09, No Iterations 3
DILUPBiCGStab:  Solving for H2O, Initial residual = 0.00521135, Final residual = 1.26197e-09, No Iterations 3
DILUPBiCGStab:  Solving for CH4, Initial residual = 0, Final residual = 0, No Iterations 0
DILUPBiCGStab:  Solving for CO2, Initial residual = 0.00521135, Final residual = 1.26194e-09, No Iterations 3
DILUPBiCGStab:  Solving for h, Initial residual = 0.00601997, Final residual = 6.10114e-09, No Iterations 3
min/max(T) = 300, 1044.97
GAMGPCG:  Solving for p_rgh, Initial residual = 0.024073, Final residual = 3.17462e-07, No Iterations 5
diagonal:  Solving for rho, Initial residual = 0, Final residual = 0, No Iterations 0
time step continuity errors : sum local = 2.56103e-08, global = -4.69784e-10, cumulative = -2.21879e-07
GAMGPCG:  Solving for p_rgh, Initial residual = 0.00366224, Final residual = 2.35792e-07, No Iterations 4
diagonal:  Solving for rho, Initial residual = 0, Final residual = 0, No Iterations 0
time step continuity errors : sum local = 1.80529e-08, global = 2.40096e-09, cumulative = -2.19478e-07
DILUPBiCGStab:  Solving for omega, Initial residual = 0.00017523, Final residual = 1.58222e-09, No Iterations 2
DILUPBiCGStab:  Solving for k, Initial residual = 0.00977814, Final residual = 4.8334e-09, No Iterations 3

ExecutionTime = 0.99 s  ClockTime = 1 s

    Overall     = 0.00197615, 0.01
Time = 257

diagonal:  Solving for rho, Initial residual = 0, Final residual = 0, No Iterations 0

Execution time for mesh.update() = 0 s

DILUPBiCGStab:  Solving for Ux, Initial residual = 0.00838918, Final residual = 9.26669e-09, No Iterations 3
DILUPBiCGStab:  Solving for Uy, Initial residual = 0.00904574, Final residual = 1.92706e-09, No Iterations 3
DILUPBiCGStab:  Solving for O2, Initial residual = 0.0052207, Final residual = 9.9954e-10, No Iterations 3
DILUPBiCGStab:  Solving for H2O, Initial residual = 0.00522068, Final residual = 9.99509e-10, No Iterations 3
DILUPBiCGStab:  Solving for CH4, Initial residual = 0, Final residual = 0, No Iterations 0
DILUPBiCGStab:  Solving for CO2, Initial residual = 0.00522068, Final residual = 9.99493e-10, No Iterations 3
DILUPBiCGStab:  Solving for h, Initial residual = 0.00602755, Final residual = 2.21403e-09, No Iterations 3
min/max(T) = 300, 1044.97
GAMGPCG:  Solving for p_rgh, Initial residual = 0.0241527, Final residual = 2.49584e-07, No Iterations 5
diagonal:  Solving for rho, Initial residual = 0, Final residual = 0, No Iterations 0
time step continuity errors : sum local = 1.96314e-08, global = -6.40075e-10, cumulative = -2.20118e-07
GAMGPCG:  Solving for p_rgh, Initial residual = 0.00355725, Final residual = 2.24269e-07, No Iterations 4
diagonal:  Solving for rho, Initial residual = 0, Final residual = 0, No Iterations 0
time step continuity errors : sum local = 1.6907e-08, global = 1.95741e-09, cumulative = -2.18161e-07
DILUPBiCGStab:  Solving for omega, Initial residual = 0.000174911, Final residual = 1.64087e-09, No Iterations 2
DILUPBiCGStab:  Solving for k, Initial residual = 0.00981541, Final residual = 4.6497e-09, No Iterations 3

ExecutionTime = 1.11 s  ClockTime = 1 s

    Overall     = 0.00197486, 0.01
Time = 258

diagonal:  Solving for rho, Initial residual = 0, Final residual = 0, No Iterations 0

Execution time for mesh.update() = 0 s

DILUPBiCGStab:  Solving for Ux, Initial residual = 0.00842232, Final residual = 8.81754e-09, No Iterations 3
DILUPBiCGStab:  Solving for Uy, Initial residual = 0.00904133, Final residual = 3.13885e-09, No Iterations 3
DILUPBiCGStab:  Solving for O2, Initial residual = 0.00522825, Final residual = 9.20385e-09, No Iterations 3
DILUPBiCGStab:  Solving for H2O, Initial residual = 0.00522823, Final residual = 9.20331e-09, No Iterations 3
DILUPBiCGStab:  Solving for CH4, Initial residual = 0, Final residual = 0, No Iterations 0
DILUPBiCGStab:  Solving for CO2, Initial residual = 0.00522823, Final residual = 9.20321e-09, No Iterations 3
DILUPBiCGStab:  Solving for h, Initial residual = 0.00603583, Final residual = 1.9939e-09, No Iterations 3
min/max(T) = 300, 1044.97
GAMGPCG:  Solving for p_rgh, Initial residual = 0.0243064, Final residual = 1.95498e-07, No Iterations 5
diagonal:  Solving for rho, Initial residual = 0, Final residual = 0, No Iterations 0
time step continuity errors : sum local = 1.58254e-08, global = -9.77557e-10, cumulative = -2.19138e-07
GAMGPCG:  Solving for p_rgh, Initial residual = 0.00358956, Final residual = 2.25473e-07, No Iterations 4
diagonal:  Solving for rho, Initial residual = 0, Final residual = 0, No Iterations 0
time step continuity errors : sum local = 1.71831e-08, global = -1.80491e-09, cumulative = -2.20943e-07
DILUPBiCGStab:  Solving for omega, Initial residual = 0.0001741, Final residual = 1.48769e-09, No Iterations 2
DILUPBiCGStab:  Solving for k, Initial residual = 0.00986587, Final residual = 4.48797e-09, No Iterations 3

ExecutionTime = 1.23 s  ClockTime = 1 s

    Overall     = 0.0019738, 0.01
Time = 259

diagonal:  Solving for rho, Initial residual = 0, Final residual = 0, No Iterations 0

Execution time for mesh.update() = 0 s

DILUPBiCGStab:  Solving for Ux, Initial residual = 0.00842566, Final residual = 8.21712e-09, No Iterations 3
DILUPBiCGStab:  Solving for Uy, Initial residual = 0.00901888, Final residual = 2.71623e-09, No Iterations 3
DILUPBiCGStab:  Solving for O2, Initial residual = 0.00523575, Final residual = 7.01717e-09, No Iterations 3
DILUPBiCGStab:  Solving for H2O, Initial residual = 0.00523574, Final residual = 7.01681e-09, No Iterations 3
DILUPBiCGStab:  Solving for CH4, Initial residual = 0, Final residual = 0, No Iterations 0
DILUPBiCGStab:  Solving for CO2, Initial residual = 0.00523574, Final residual = 7.01677e-09, No Iterations 3
DILUPBiCGStab:  Solving for h, Initial residual = 0.00604549, Final residual = 1.17911e-09, No Iterations 3
min/max(T) = 300, 1044.97
GAMGPCG:  Solving for p_rgh, Initial residual = 0.0242463, Final residual = 2.08239e-07, No Iterations 5
diagonal:  Solving for rho, Initial residual = 0, Final residual = 0, No Iterations 0
time step continuity errors : sum local = 1.64978e-08, global = -1.44384e-09, cumulative = -2.22387e-07
GAMGPCG:  Solving for p_rgh, Initial residual = 0.00361526, Final residual = 2.47035e-07, No Iterations 4
diagonal:  Solving for rho, Initial residual = 0, Final residual = 0, No Iterations 0
time step continuity errors : sum local = 1.88957e-08, global = -2.37216e-09, cumulative = -2.24759e-07
DILUPBiCGStab:  Solving for omega, Initial residual = 0.000174185, Final residual = 1.63592e-09, No Iterations 2
DILUPBiCGStab:  Solving for k, Initial residual = 0.00986764, Final residual = 4.49956e-09, No Iterations 3

ExecutionTime = 1.35 s  ClockTime = 1 s

    Overall     = 0.00197358, 0.01
Time = 260

diagonal:  Solving for rho, Initial residual = 0, Final residual = 0, No Iterations 0

Execution time for mesh.update() = 0 s

DILUPBiCGStab:  Solving for Ux, Initial residual = 0.00844155, Final residual = 7.43723e-09, No Iterations 3
DILUPBiCGStab:  Solving for Uy, Initial residual = 0.00897606, Final residual = 2.7575e-09, No Iterations 3
GAMGPCG:  Solving for G, Initial residual = 0.162837, Final residual = 4.64976e-05, No Iterations 6
DILUPBiCGStab:  Solving for O2, Initial residual = 0.00524635, Final residual = 5.84438e-09, No Iterations 3
DILUPBiCGStab:  Solving for H2O, Initial residual = 0.00524634, Final residual = 5.84406e-09, No Iterations 3
DILUPBiCGStab:  Solving for CH4, Initial residual = 0, Final residual = 0, No Iterations 0
DILUPBiCGStab:  Solving for CO2, Initial residual = 0.00524634, Final residual = 5.84404e-09, No Iterations 3
DILUPBiCGStab:  Solving for h, Initial residual = 0.00605744, Final residual = 9.77348e-09, No Iterations 3
min/max(T) = 300, 1044.97
GAMGPCG:  Solving for p_rgh, Initial residual = 0.0243819, Final residual = 2.06136e-07, No Iterations 5
diagonal:  Solving for rho, Initial residual = 0, Final residual = 0, No Iterations 0
time step continuity errors : sum local = 1.66949e-08, global = -9.72011e-10, cumulative = -2.25731e-07
GAMGPCG:  Solving for p_rgh, Initial residual = 0.00358781, Final residual = 2.76342e-07, No Iterations 4
diagonal:  Solving for rho, Initial residual = 0, Final residual = 0, No Iterations 0
time step continuity errors : sum local = 2.16142e-08, global = -1.61686e-09, cumulative = -2.27348e-07
DILUPBiCGStab:  Solving for omega, Initial residual = 0.000174403, Final residual = 1.54321e-09, No Iterations 2
DILUPBiCGStab:  Solving for k, Initial residual = 0.00989578, Final residual = 4.33786e-09, No Iterations 3

ExecutionTime = 1.62 s  ClockTime = 1 s

    Overall     = 0.00197381, 0.01
Time = 261

diagonal:  Solving for rho, Initial residual = 0, Final residual = 0, No Iterations 0

Execution time for mesh.update() = 0 s

DILUPBiCGStab:  Solving for Ux, Initial residual = 0.00846427, Final residual = 6.80872e-09, No Iterations 3
DILUPBiCGStab:  Solving for Uy, Initial residual = 0.00895005, Final residual = 8.2596e-09, No Iterations 3
DILUPBiCGStab:  Solving for O2, Initial residual = 0.00526324, Final residual = 7.41336e-09, No Iterations 3
DILUPBiCGStab:  Solving for H2O, Initial residual = 0.00526323, Final residual = 7.41297e-09, No Iterations 3
DILUPBiCGStab:  Solving for CH4, Initial residual = 0, Final residual = 0, No Iterations 0
DILUPBiCGStab:  Solving for CO2, Initial residual = 0.00526323, Final residual = 7.41293e-09, No Iterations 3
DILUPBiCGStab:  Solving for h, Initial residual = 0.00607621, Final residual = 1.06986e-09, No Iterations 3
min/max(T) = 300, 1044.97
GAMGPCG:  Solving for p_rgh, Initial residual = 0.0248236, Final residual = 1.97529e-07, No Iterations 5
diagonal:  Solving for rho, Initial residual = 0, Final residual = 0, No Iterations 0
time step continuity errors : sum local = 1.57237e-08, global = -1.40544e-09, cumulative = -2.28754e-07
GAMGPCG:  Solving for p_rgh, Initial residual = 0.00368054, Final residual = 2.99084e-07, No Iterations 4
diagonal:  Solving for rho, Initial residual = 0, Final residual = 0, No Iterations 0
time step continuity errors : sum local = 2.33932e-08, global = -9.99883e-10, cumulative = -2.29753e-07
DILUPBiCGStab:  Solving for omega, Initial residual = 0.000173937, Final residual = 1.64227e-09, No Iterations 2
DILUPBiCGStab:  Solving for k, Initial residual = 0.0099326, Final residual = 4.31416e-09, No Iterations 3

ExecutionTime = 1.74 s  ClockTime = 1 s

    Overall     = 0.00197477, 0.01
Time = 262

diagonal:  Solving for rho, Initial residual = 0, Final residual = 0, No Iterations 0

Execution time for mesh.update() = 0 s

DILUPBiCGStab:  Solving for Ux, Initial residual = 0.00850433, Final residual = 6.11446e-09, No Iterations 3
DILUPBiCGStab:  Solving for Uy, Initial residual = 0.00893662, Final residual = 7.25857e-09, No Iterations 3
DILUPBiCGStab:  Solving for O2, Initial residual = 0.0052619, Final residual = 6.02789e-09, No Iterations 3
DILUPBiCGStab:  Solving for H2O, Initial residual = 0.00526189, Final residual = 6.02757e-09, No Iterations 3
DILUPBiCGStab:  Solving for CH4, Initial residual = 0, Final residual = 0, No Iterations 0
DILUPBiCGStab:  Solving for CO2, Initial residual = 0.00526189, Final residual = 6.02755e-09, No Iterations 3
DILUPBiCGStab:  Solving for h, Initial residual = 0.00607175, Final residual = 9.42133e-09, No Iterations 3
min/max(T) = 300, 1044.97
GAMGPCG:  Solving for p_rgh, Initial residual = 0.0241226, Final residual = 2.20658e-07, No Iterations 5
diagonal:  Solving for rho, Initial residual = 0, Final residual = 0, No Iterations 0
time step continuity errors : sum local = 1.78975e-08, global = -7.37268e-10, cumulative = -2.30491e-07
GAMGPCG:  Solving for p_rgh, Initial residual = 0.00365794, Final residual = 2.97466e-07, No Iterations 4
diagonal:  Solving for rho, Initial residual = 0, Final residual = 0, No Iterations 0
time step continuity errors : sum local = 2.38326e-08, global = -1.71374e-09, cumulative = -2.32205e-07
DILUPBiCGStab:  Solving for omega, Initial residual = 0.000174771, Final residual = 1.54106e-09, No Iterations 2
DILUPBiCGStab:  Solving for k, Initial residual = 0.00995292, Final residual = 4.30111e-09, No Iterations 3

ExecutionTime = 1.86 s  ClockTime = 1 s

    Overall     = 0.00197612, 0.01
Time = 263

diagonal:  Solving for rho, Initial residual = 0, Final residual = 0, No Iterations 0

Execution time for mesh.update() = 0 s

DILUPBiCGStab:  Solving for Ux, Initial residual = 0.00848686, Final residual = 5.56889e-09, No Iterations 3
DILUPBiCGStab:  Solving for Uy, Initial residual = 0.00887306, Final residual = 7.0513e-09, No Iterations 3
DILUPBiCGStab:  Solving for O2, Initial residual = 0.00527179, Final residual = 5.10487e-09, No Iterations 3
DILUPBiCGStab:  Solving for H2O, Initial residual = 0.00527177, Final residual = 5.10458e-09, No Iterations 3
DILUPBiCGStab:  Solving for CH4, Initial residual = 0, Final residual = 0, No Iterations 0
DILUPBiCGStab:  Solving for CO2, Initial residual = 0.00527177, Final residual = 5.10456e-09, No Iterations 3
DILUPBiCGStab:  Solving for h, Initial residual = 0.00607835, Final residual = 7.59474e-09, No Iterations 3
min/max(T) = 300, 1044.97
GAMGPCG:  Solving for p_rgh, Initial residual = 0.0252084, Final residual = 2.01903e-07, No Iterations 5
diagonal:  Solving for rho, Initial residual = 0, Final residual = 0, No Iterations 0
time step continuity errors : sum local = 1.5726e-08, global = -1.50827e-09, cumulative = -2.33713e-07
GAMGPCG:  Solving for p_rgh, Initial residual = 0.00357482, Final residual = 2.6455e-07, No Iterations 4
diagonal:  Solving for rho, Initial residual = 0, Final residual = 0, No Iterations 0
time step continuity errors : sum local = 2.1104e-08, global = -1.35454e-09, cumulative = -2.35067e-07
DILUPBiCGStab:  Solving for omega, Initial residual = 0.000173582, Final residual = 1.48739e-09, No Iterations 2
DILUPBiCGStab:  Solving for k, Initial residual = 0.00997055, Final residual = 4.31605e-09, No Iterations 3

ExecutionTime = 1.98 s  ClockTime = 2 s

    Overall     = 0.00197823, 0.01
Time = 264

diagonal:  Solving for rho, Initial residual = 0, Final residual = 0, No Iterations 0

Execution time for mesh.update() = 0 s

DILUPBiCGStab:  Solving for Ux, Initial residual = 0.00850787, Final residual = 5.45692e-09, No Iterations 3
DILUPBiCGStab:  Solving for Uy, Initial residual = 0.00888605, Final residual = 6.72092e-09, No Iterations 3
DILUPBiCGStab:  Solving for O2, Initial residual = 0.00526628, Final residual = 6.04714e-09, No Iterations 3
DILUPBiCGStab:  Solving for H2O, Initial residual = 0.00526626, Final residual = 6.04675e-09, No Iterations 3
DILUPBiCGStab:  Solving for CH4, Initial residual = 0, Final residual = 0, No Iterations 0
DILUPBiCGStab:  Solving for CO2, Initial residual = 0.00526626, Final residual = 6.04673e-09, No Iterations 3
DILUPBiCGStab:  Solving for h, Initial residual = 0.00607817, Final residual = 8.54212e-09, No Iterations 3
min/max(T) = 300, 1044.97
GAMGPCG:  Solving for p_rgh, Initial residual = 0.0243691, Final residual = 1.8082e-07, No Iterations 5
diagonal:  Solving for rho, Initial residual = 0, Final residual = 0, No Iterations 0
time step continuity errors : sum local = 1.43664e-08, global = -9.61893e-10, cumulative = -2.36029e-07
GAMGPCG:  Solving for p_rgh, Initial residual = 0.00382815, Final residual = 2.48614e-07, No Iterations 4
diagonal:  Solving for rho, Initial residual = 0, Final residual = 0, No Iterations 0
time step continuity errors : sum local = 1.97426e-08, global = -1.65861e-09, cumulative = -2.37688e-07
DILUPBiCGStab:  Solving for omega, Initial residual = 0.000176147, Final residual = 1.4855e-09, No Iterations 2
DILUPBiCGStab:  Solving for k, Initial residual = 0.0100058, Final residual = 4.6888e-09, No Iterations 3

ExecutionTime = 2.09 s  ClockTime = 2 s

    Overall     = 0.001981, 0.01
Time = 265

diagonal:  Solving for rho, Initial residual = 0, Final residual = 0, No Iterations 0

Execution time for mesh.update() = 0 s

DILUPBiCGStab:  Solving for Ux, Initial residual = 0.00850396, Final residual = 5.08341e-09, No Iterations 3
DILUPBiCGStab:  Solving for Uy, Initial residual = 0.00882376, Final residual = 6.60917e-09, No Iterations 3
DILUPBiCGStab:  Solving for O2, Initial residual = 0.00526872, Final residual = 4.00859e-09, No Iterations 3
DILUPBiCGStab:  Solving for H2O, Initial residual = 0.0052687, Final residual = 4.00843e-09, No Iterations 3
DILUPBiCGStab:  Solving for CH4, Initial residual = 0, Final residual = 0, No Iterations 0
DILUPBiCGStab:  Solving for CO2, Initial residual = 0.0052687, Final residual = 4.00842e-09, No Iterations 3
DILUPBiCGStab:  Solving for h, Initial residual = 0.00608161, Final residual = 5.23612e-09, No Iterations 3
min/max(T) = 300, 1044.97
GAMGPCG:  Solving for p_rgh, Initial residual = 0.0247514, Final residual = 1.18026e-07, No Iterations 5
diagonal:  Solving for rho, Initial residual = 0, Final residual = 0, No Iterations 0
time step continuity errors : sum local = 9.19602e-09, global = -1.13181e-09, cumulative = -2.3882e-07
GAMGPCG:  Solving for p_rgh, Initial residual = 0.00376525, Final residual = 2.41807e-07, No Iterations 4
diagonal:  Solving for rho, Initial residual = 0, Final residual = 0, No Iterations 0
time step continuity errors : sum local = 1.85485e-08, global = -3.26841e-09, cumulative = -2.42088e-07
DILUPBiCGStab:  Solving for omega, Initial residual = 0.000174724, Final residual = 1.43729e-09, No Iterations 2
DILUPBiCGStab:  Solving for k, Initial residual = 0.010046, Final residual = 4.79175e-09, No Iterations 3

ExecutionTime = 2.22 s  ClockTime = 2 s

    Overall     = 0.0019841, 0.01
Time = 266

diagonal:  Solving for rho, Initial residual = 0, Final residual = 0, No Iterations 0

Execution time for mesh.update() = 0 s

DILUPBiCGStab:  Solving for Ux, Initial residual = 0.00853939, Final residual = 5.07698e-09, No Iterations 3
DILUPBiCGStab:  Solving for Uy, Initial residual = 0.00880917, Final residual = 6.11312e-09, No Iterations 3
DILUPBiCGStab:  Solving for O2, Initial residual = 0.00526785, Final residual = 5.7866e-09, No Iterations 3
DILUPBiCGStab:  Solving for H2O, Initial residual = 0.00526784, Final residual = 5.78631e-09, No Iterations 3
DILUPBiCGStab:  Solving for CH4, Initial residual = 0, Final residual = 0, No Iterations 0
DILUPBiCGStab:  Solving for CO2, Initial residual = 0.00526784, Final residual = 5.7863e-09, No Iterations 3
DILUPBiCGStab:  Solving for h, Initial residual = 0.00608238, Final residual = 8.04231e-09, No Iterations 3
min/max(T) = 300, 1044.97
GAMGPCG:  Solving for p_rgh, Initial residual = 0.0247261, Final residual = 1.32811e-07, No Iterations 5
diagonal:  Solving for rho, Initial residual = 0, Final residual = 0, No Iterations 0
time step continuity errors : sum local = 1.03389e-08, global = -1.12361e-09, cumulative = -2.43212e-07
GAMGPCG:  Solving for p_rgh, Initial residual = 0.00379048, Final residual = 2.90969e-07, No Iterations 4
diagonal:  Solving for rho, Initial residual = 0, Final residual = 0, No Iterations 0
time step continuity errors : sum local = 2.22551e-08, global = -3.87969e-09, cumulative = -2.47091e-07
DILUPBiCGStab:  Solving for omega, Initial residual = 0.000174488, Final residual = 1.46436e-09, No Iterations 2
DILUPBiCGStab:  Solving for k, Initial residual = 0.0100648, Final residual = 4.34107e-09, No Iterations 3

ExecutionTime = 2.34 s  ClockTime = 2 s

    Overall     = 0.00198419, 0.01
Time = 267

diagonal:  Solving for rho, Initial residual = 0, Final residual = 0, No Iterations 0

Execution time for mesh.update() = 0 s

DILUPBiCGStab:  Solving for Ux, Initial residual = 0.00852368, Final residual = 4.91378e-09, No Iterations 3
DILUPBiCGStab:  Solving for Uy, Initial residual = 0.00879152, Final residual = 5.99555e-09, No Iterations 3
DILUPBiCGStab:  Solving for O2, Initial residual = 0.00526529, Final residual = 6.45564e-09, No Iterations 3
DILUPBiCGStab:  Solving for H2O, Initial residual = 0.00526527, Final residual = 6.45525e-09, No Iterations 3
DILUPBiCGStab:  Solving for CH4, Initial residual = 0, Final residual = 0, No Iterations 0
DILUPBiCGStab:  Solving for CO2, Initial residual = 0.00526527, Final residual = 6.45521e-09, No Iterations 3
DILUPBiCGStab:  Solving for h, Initial residual = 0.00608407, Final residual = 9.37906e-09, No Iterations 3
min/max(T) = 300, 1044.97
GAMGPCG:  Solving for p_rgh, Initial residual = 0.0248795, Final residual = 1.334e-07, No Iterations 5
diagonal:  Solving for rho, Initial residual = 0, Final residual = 0, No Iterations 0
time step continuity errors : sum local = 1.05015e-08, global = 1.79217e-09, cumulative = -2.45299e-07
GAMGPCG:  Solving for p_rgh, Initial residual = 0.00382249, Final residual = 2.62469e-07, No Iterations 4
diagonal:  Solving for rho, Initial residual = 0, Final residual = 0, No Iterations 0
time step continuity errors : sum local = 1.99173e-08, global = -3.98534e-09, cumulative = -2.49285e-07
DILUPBiCGStab:  Solving for omega, Initial residual = 0.000174747, Final residual = 1.45502e-09, No Iterations 2
DILUPBiCGStab:  Solving for k, Initial residual = 0.0100803, Final residual = 4.10999e-09, No Iterations 3

ExecutionTime = 2.46 s  ClockTime = 2 s

    Overall     = 0.00198264, 0.01
Time = 268

diagonal:  Solving for rho, Initial residual = 0, Final residual = 0, No Iterations 0

Execution time for mesh.update() = 0 s

DILUPBiCGStab:  Solving for Ux, Initial residual = 0.00852699, Final residual = 4.86278e-09, No Iterations 3
DILUPBiCGStab:  Solving for Uy, Initial residual = 0.0087575, Final residual = 6.0007e-09, No Iterations 3
DILUPBiCGStab:  Solving for O2, Initial residual = 0.00524715, Final residual = 1.13737e-09, No Iterations 3
DILUPBiCGStab:  Solving for H2O, Initial residual = 0.00524713, Final residual = 1.13728e-09, No Iterations 3
DILUPBiCGStab:  Solving for CH4, Initial residual = 0, Final residual = 0, No Iterations 0
DILUPBiCGStab:  Solving for CO2, Initial residual = 0.00524713, Final residual = 1.13727e-09, No Iterations 3
DILUPBiCGStab:  Solving for h, Initial residual = 0.00606253, Final residual = 1.68445e-09, No Iterations 3
min/max(T) = 300, 1044.97
GAMGPCG:  Solving for p_rgh, Initial residual = 0.0240465, Final residual = 1.30824e-07, No Iterations 5
diagonal:  Solving for rho, Initial residual = 0, Final residual = 0, No Iterations 0
time step continuity errors : sum local = 9.96735e-09, global = 9.26655e-10, cumulative = -2.48358e-07
GAMGPCG:  Solving for p_rgh, Initial residual = 0.00375738, Final residual = 2.74269e-07, No Iterations 4
diagonal:  Solving for rho, Initial residual = 0, Final residual = 0, No Iterations 0
time step continuity errors : sum local = 2.04796e-08, global = -2.98344e-09, cumulative = -2.51341e-07
DILUPBiCGStab:  Solving for omega, Initial residual = 0.00017423, Final residual = 1.46538e-09, No Iterations 2
DILUPBiCGStab:  Solving for k, Initial residual = 0.0101025, Final residual = 4.08934e-09, No Iterations 3

ExecutionTime = 2.58 s  ClockTime = 2 s

    Overall     = 0.00197825, 0.01
Time = 269

diagonal:  Solving for rho, Initial residual = 0, Final residual = 0, No Iterations 0

Execution time for mesh.update() = 0 s

DILUPBiCGStab:  Solving for Ux, Initial residual = 0.00852983, Final residual = 4.85938e-09, No Iterations 3
DILUPBiCGStab:  Solving for Uy, Initial residual = 0.00873615, Final residual = 5.84273e-09, No Iterations 3
DILUPBiCGStab:  Solving for O2, Initial residual = 0.0052488, Final residual = 9.85806e-09, No Iterations 3
DILUPBiCGStab:  Solving for H2O, Initial residual = 0.00524879, Final residual = 9.85744e-09, No Iterations 3
DILUPBiCGStab:  Solving for CH4, Initial residual = 0, Final residual = 0, No Iterations 0
DILUPBiCGStab:  Solving for CO2, Initial residual = 0.00524879, Final residual = 9.85737e-09, No Iterations 3
DILUPBiCGStab:  Solving for h, Initial residual = 0.0060638, Final residual = 1.63079e-09, No Iterations 3
min/max(T) = 300, 1044.97
GAMGPCG:  Solving for p_rgh, Initial residual = 0.0246146, Final residual = 1.61242e-07, No Iterations 5
diagonal:  Solving for rho, Initial residual = 0, Final residual = 0, No Iterations 0
time step continuity errors : sum local = 1.26002e-08, global = 9.56045e-10, cumulative = -2.50385e-07
GAMGPCG:  Solving for p_rgh, Initial residual = 0.00378673, Final residual = 2.08076e-07, No Iterations 4
diagonal:  Solving for rho, Initial residual = 0, Final residual = 0, No Iterations 0
time step continuity errors : sum local = 1.54502e-08, global = -1.23674e-09, cumulative = -2.51622e-07
DILUPBiCGStab:  Solving for omega, Initial residual = 0.000174873, Final residual = 1.48822e-09, No Iterations 2
DILUPBiCGStab:  Solving for k, Initial residual = 0.0101345, Final residual = 4.39046e-09, No Iterations 3

ExecutionTime = 2.7 s  ClockTime = 2 s

    Overall     = 0.00197556, 0.01
Time = 270

diagonal:  Solving for rho, Initial residual = 0, Final residual = 0, No Iterations 0

Execution time for mesh.update() = 0 s

DILUPBiCGStab:  Solving for Ux, Initial residual = 0.00852661, Final residual = 4.79694e-09, No Iterations 3
DILUPBiCGStab:  Solving for Uy, Initial residual = 0.0087251, Final residual = 6.31144e-09, No Iterations 3
GAMGPCG:  Solving for G, Initial residual = 0.178859, Final residual = 3.95029e-05, No Iterations 6
DILUPBiCGStab:  Solving for O2, Initial residual = 0.00523302, Final residual = 1.1332e-09, No Iterations 3
DILUPBiCGStab:  Solving for H2O, Initial residual = 0.00523301, Final residual = 1.13312e-09, No Iterations 3
DILUPBiCGStab:  Solving for CH4, Initial residual = 0, Final residual = 0, No Iterations 0
DILUPBiCGStab:  Solving for CO2, Initial residual = 0.00523301, Final residual = 1.13311e-09, No Iterations 3
DILUPBiCGStab:  Solving for h, Initial residual = 0.00604431, Final residual = 1.75011e-09, No Iterations 3
min/max(T) = 300, 1044.97
GAMGPCG:  Solving for p_rgh, Initial residual = 0.0241427, Final residual = 1.76668e-07, No Iterations 5
diagonal:  Solving for rho, Initial residual = 0, Final residual = 0, No Iterations 0
time step continuity errors : sum local = 1.32659e-08, global = -7.33996e-10, cumulative = -2.52356e-07
GAMGPCG:  Solving for p_rgh, Initial residual = 0.00373367, Final residual = 2.29688e-07, No Iterations 4
diagonal:  Solving for rho, Initial residual = 0, Final residual = 0, No Iterations 0
time step continuity errors : sum local = 1.69042e-08, global = 2.16782e-10, cumulative = -2.52139e-07
DILUPBiCGStab:  Solving for omega, Initial residual = 0.000175939, Final residual = 1.46091e-09, No Iterations 2
DILUPBiCGStab:  Solving for k, Initial residual = 0.0101521, Final residual = 4.79729e-09, No Iterations 3

ExecutionTime = 2.96 s  ClockTime = 3 s

    Overall     = 0.00196932, 0.01
Time = 271

diagonal:  Solving for rho, Initial residual = 0, Final residual = 0, No Iterations 0

Execution time for mesh.update() = 0 s

DILUPBiCGStab:  Solving for Ux, Initial residual = 0.00849872, Final residual = 4.75659e-09, No Iterations 3
DILUPBiCGStab:  Solving for Uy, Initial residual = 0.00870507, Final residual = 5.59492e-09, No Iterations 3
DILUPBiCGStab:  Solving for O2, Initial residual = 0.00523169, Final residual = 3.56093e-09, No Iterations 3
DILUPBiCGStab:  Solving for H2O, Initial residual = 0.00523168, Final residual = 3.56047e-09, No Iterations 3
DILUPBiCGStab:  Solving for CH4, Initial residual = 0, Final residual = 0, No Iterations 0
DILUPBiCGStab:  Solving for CO2, Initial residual = 0.00523168, Final residual = 3.56042e-09, No Iterations 3
DILUPBiCGStab:  Solving for h, Initial residual = 0.0060421, Final residual = 4.46665e-09, No Iterations 3
min/max(T) = 300, 1044.97
GAMGPCG:  Solving for p_rgh, Initial residual = 0.0247101, Final residual = 1.79788e-07, No Iterations 5
diagonal:  Solving for rho, Initial residual = 0, Final residual = 0, No Iterations 0
time step continuity errors : sum local = 1.36967e-08, global = 1.48755e-09, cumulative = -2.50652e-07
GAMGPCG:  Solving for p_rgh, Initial residual = 0.00366802, Final residual = 2.94891e-07, No Iterations 4
diagonal:  Solving for rho, Initial residual = 0, Final residual = 0, No Iterations 0
time step continuity errors : sum local = 2.1342e-08, global = 8.55837e-10, cumulative = -2.49796e-07
DILUPBiCGStab:  Solving for omega, Initial residual = 0.000172592, Final residual = 1.40256e-09, No Iterations 2
DILUPBiCGStab:  Solving for k, Initial residual = 0.0101922, Final residual = 4.62759e-09, No Iterations 3

ExecutionTime = 3.07 s  ClockTime = 3 s

    Overall     = 0.00196857, 0.01
Time = 272

diagonal:  Solving for rho, Initial residual = 0, Final residual = 0, No Iterations 0

Execution time for mesh.update() = 0 s

DILUPBiCGStab:  Solving for Ux, Initial residual = 0.00850128, Final residual = 4.63089e-09, No Iterations 3
DILUPBiCGStab:  Solving for Uy, Initial residual = 0.00872708, Final residual = 5.57128e-09, No Iterations 3
DILUPBiCGStab:  Solving for O2, Initial residual = 0.00521073, Final residual = 4.11062e-09, No Iterations 3
DILUPBiCGStab:  Solving for H2O, Initial residual = 0.00521072, Final residual = 4.11009e-09, No Iterations 3
DILUPBiCGStab:  Solving for CH4, Initial residual = 0, Final residual = 0, No Iterations 0
DILUPBiCGStab:  Solving for CO2, Initial residual = 0.00521073, Final residual = 4.11002e-09, No Iterations 3
DILUPBiCGStab:  Solving for h, Initial residual = 0.00601727, Final residual = 9.38307e-09, No Iterations 3
min/max(T) = 300, 1044.97
GAMGPCG:  Solving for p_rgh, Initial residual = 0.0240769, Final residual = 2.56295e-07, No Iterations 5
diagonal:  Solving for rho, Initial residual = 0, Final residual = 0, No Iterations 0
time step continuity errors : sum local = 1.92942e-08, global = -1.38505e-09, cumulative = -2.51181e-07
GAMGPCG:  Solving for p_rgh, Initial residual = 0.00380407, Final residual = 2.76599e-07, No Iterations 4
diagonal:  Solving for rho, Initial residual = 0, Final residual = 0, No Iterations 0
time step continuity errors : sum local = 1.99537e-08, global = 5.85258e-10, cumulative = -2.50596e-07
DILUPBiCGStab:  Solving for omega, Initial residual = 0.000172459, Final residual = 1.38054e-09, No Iterations 2
DILUPBiCGStab:  Solving for k, Initial residual = 0.0102159, Final residual = 4.04697e-09, No Iterations 3

ExecutionTime = 3.2 s  ClockTime = 3 s

    Overall     = 0.00196209, 0.01
Time = 273

diagonal:  Solving for rho, Initial residual = 0, Final residual = 0, No Iterations 0

Execution time for mesh.update() = 0 s

DILUPBiCGStab:  Solving for Ux, Initial residual = 0.00850285, Final residual = 4.5692e-09, No Iterations 3
DILUPBiCGStab:  Solving for Uy, Initial residual = 0.00870253, Final residual = 5.31441e-09, No Iterations 3
DILUPBiCGStab:  Solving for O2, Initial residual = 0.00519379, Final residual = 7.52752e-11, No Iterations 4
DILUPBiCGStab:  Solving for H2O, Initial residual = 0.00519379, Final residual = 7.52766e-11, No Iterations 4
DILUPBiCGStab:  Solving for CH4, Initial residual = 0, Final residual = 0, No Iterations 0
DILUPBiCGStab:  Solving for CO2, Initial residual = 0.00519379, Final residual = 7.52767e-11, No Iterations 4
DILUPBiCGStab:  Solving for h, Initial residual = 0.00599341, Final residual = 5.69711e-09, No Iterations 3
min/max(T) = 300, 1044.97
GAMGPCG:  Solving for p_rgh, Initial residual = 0.0238701, Final residual = 1.73802e-07, No Iterations 5
diagonal:  Solving for rho, Initial residual = 0, Final residual = 0, No Iterations 0
time step continuity errors : sum local = 1.33234e-08, global = 1.49096e-09, cumulative = -2.49105e-07
GAMGPCG:  Solving for p_rgh, Initial residual = 0.00362551, Final residual = 3.6046e-07, No Iterations 4
diagonal:  Solving for rho, Initial residual = 0, Final residual = 0, No Iterations 0
time step continuity errors : sum local = 2.62118e-08, global = 3.07004e-10, cumulative = -2.48798e-07
DILUPBiCGStab:  Solving for omega, Initial residual = 0.000172983, Final residual = 1.3721e-09, No Iterations 2
DILUPBiCGStab:  Solving for k, Initial residual = 0.0102494, Final residual = 3.76564e-09, No Iterations 3

ExecutionTime = 3.32 s  ClockTime = 3 s

    Overall     = 0.00196151, 0.01
Time = 274

diagonal:  Solving for rho, Initial residual = 0, Final residual = 0, No Iterations 0

Execution time for mesh.update() = 0 s

DILUPBiCGStab:  Solving for Ux, Initial residual = 0.00851357, Final residual = 4.1538e-09, No Iterations 3
DILUPBiCGStab:  Solving for Uy, Initial residual = 0.00868151, Final residual = 5.09784e-09, No Iterations 3
DILUPBiCGStab:  Solving for O2, Initial residual = 0.00516174, Final residual = 3.11223e-09, No Iterations 3
DILUPBiCGStab:  Solving for H2O, Initial residual = 0.00516173, Final residual = 3.11198e-09, No Iterations 3
DILUPBiCGStab:  Solving for CH4, Initial residual = 0, Final residual = 0, No Iterations 0
DILUPBiCGStab:  Solving for CO2, Initial residual = 0.00516173, Final residual = 3.11195e-09, No Iterations 3
DILUPBiCGStab:  Solving for h, Initial residual = 0.00595675, Final residual = 9.54888e-09, No Iterations 3
min/max(T) = 300, 1044.97
GAMGPCG:  Solving for p_rgh, Initial residual = 0.0241443, Final residual = 2.36225e-07, No Iterations 5
diagonal:  Solving for rho, Initial residual = 0, Final residual = 0, No Iterations 0
time step continuity errors : sum local = 1.79156e-08, global = -3.98271e-10, cumulative = -2.49196e-07
GAMGPCG:  Solving for p_rgh, Initial residual = 0.00356433, Final residual = 3.66283e-07, No Iterations 4
diagonal:  Solving for rho, Initial residual = 0, Final residual = 0, No Iterations 0
time step continuity errors : sum local = 2.68749e-08, global = 2.324e-10, cumulative = -2.48964e-07
DILUPBiCGStab:  Solving for omega, Initial residual = 0.000171726, Final residual = 1.32358e-09, No Iterations 2
DILUPBiCGStab:  Solving for k, Initial residual = 0.0102665, Final residual = 3.65931e-09, No Iterations 3

ExecutionTime = 3.44 s  ClockTime = 3 s

    Overall     = 0.00195473, 0.01
Time = 275

diagonal:  Solving for rho, Initial residual = 0, Final residual = 0, No Iterations 0

Execution time for mesh.update() = 0 s

DILUPBiCGStab:  Solving for Ux, Initial residual = 0.00849901, Final residual = 4.20777e-09, No Iterations 3
DILUPBiCGStab:  Solving for Uy, Initial residual = 0.00866364, Final residual = 5.19308e-09, No Iterations 3
DILUPBiCGStab:  Solving for O2, Initial residual = 0.00513973, Final residual = 2.29375e-09, No Iterations 3
DILUPBiCGStab:  Solving for H2O, Initial residual = 0.00513972, Final residual = 2.29362e-09, No Iterations 3
DILUPBiCGStab:  Solving for CH4, Initial residual = 0, Final residual = 0, No Iterations 0
DILUPBiCGStab:  Solving for CO2, Initial residual = 0.00513972, Final residual = 2.2936e-09, No Iterations 3
DILUPBiCGStab:  Solving for h, Initial residual = 0.00593394, Final residual = 6.80153e-09, No Iterations 3
min/max(T) = 300, 1044.97
GAMGPCG:  Solving for p_rgh, Initial residual = 0.0243086, Final residual = 1.61592e-07, No Iterations 5
diagonal:  Solving for rho, Initial residual = 0, Final residual = 0, No Iterations 0
time step continuity errors : sum local = 1.26465e-08, global = 2.0943e-09, cumulative = -2.46869e-07
GAMGPCG:  Solving for p_rgh, Initial residual = 0.00356758, Final residual = 4.41044e-07, No Iterations 4
diagonal:  Solving for rho, Initial residual = 0, Final residual = 0, No Iterations 0
time step continuity errors : sum local = 3.26328e-08, global = 4.12107e-10, cumulative = -2.46457e-07
DILUPBiCGStab:  Solving for omega, Initial residual = 0.000171501, Final residual = 1.32521e-09, No Iterations 2
DILUPBiCGStab:  Solving for k, Initial residual = 0.0103166, Final residual = 3.70171e-09, No Iterations 3

ExecutionTime = 3.56 s  ClockTime = 3 s

    Overall     = 0.00195425, 0.01
Time = 276

diagonal:  Solving for rho, Initial residual = 0, Final residual = 0, No Iterations 0

Execution time for mesh.update() = 0 s

DILUPBiCGStab:  Solving for Ux, Initial residual = 0.00849843, Final residual = 3.87737e-09, No Iterations 3
DILUPBiCGStab:  Solving for Uy, Initial residual = 0.00865229, Final residual = 4.90976e-09, No Iterations 3
DILUPBiCGStab:  Solving for O2, Initial residual = 0.00512746, Final residual = 3.26961e-09, No Iterations 3
DILUPBiCGStab:  Solving for H2O, Initial residual = 0.00512745, Final residual = 3.2694e-09, No Iterations 3
DILUPBiCGStab:  Solving for CH4, Initial residual = 0, Final residual = 0, No Iterations 0
DILUPBiCGStab:  Solving for CO2, Initial residual = 0.00512745, Final residual = 3.26937e-09, No Iterations 3
DILUPBiCGStab:  Solving for h, Initial residual = 0.00591525, Final residual = 2.2047e-11, No Iterations 4
min/max(T) = 300, 1044.97
GAMGPCG:  Solving for p_rgh, Initial residual = 0.0239655, Final residual = 3.77194e-07, No Iterations 5
diagonal:  Solving for rho, Initial residual = 0, Final residual = 0, No Iterations 0
time step continuity errors : sum local = 2.86185e-08, global = -1.16133e-09, cumulative = -2.47618e-07
GAMGPCG:  Solving for p_rgh, Initial residual = 0.00360805, Final residual = 4.54635e-07, No Iterations 4
diagonal:  Solving for rho, Initial residual = 0, Final residual = 0, No Iterations 0
time step continuity errors : sum local = 3.34732e-08, global = -1.98268e-10, cumulative = -2.47817e-07
DILUPBiCGStab:  Solving for omega, Initial residual = 0.000170952, Final residual = 1.29402e-09, No Iterations 2
DILUPBiCGStab:  Solving for k, Initial residual = 0.010349, Final residual = 3.55562e-09, No Iterations 3

ExecutionTime = 3.68 s  ClockTime = 3 s

    Overall     = 0.00194743, 0.01
Time = 277

diagonal:  Solving for rho, Initial residual = 0, Final residual = 0, No Iterations 0

Execution time for mesh.update() = 0 s

DILUPBiCGStab:  Solving for Ux, Initial residual = 0.00848866, Final residual = 4.33609e-09, No Iterations 3
DILUPBiCGStab:  Solving for Uy, Initial residual = 0.00862201, Final residual = 5.05766e-09, No Iterations 3
DILUPBiCGStab:  Solving for O2, Initial residual = 0.00511444, Final residual = 6.43649e-09, No Iterations 3
DILUPBiCGStab:  Solving for H2O, Initial residual = 0.00511443, Final residual = 6.43712e-09, No Iterations 3
DILUPBiCGStab:  Solving for CH4, Initial residual = 0, Final residual = 0, No Iterations 0
DILUPBiCGStab:  Solving for CO2, Initial residual = 0.00511443, Final residual = 6.43726e-09, No Iterations 3
DILUPBiCGStab:  Solving for h, Initial residual = 0.00589931, Final residual = 1.71512e-09, No Iterations 3
min/max(T) = 300, 1044.97
GAMGPCG:  Solving for p_rgh, Initial residual = 0.0241456, Final residual = 9.16889e-07, No Iterations 4
diagonal:  Solving for rho, Initial residual = 0, Final residual = 0, No Iterations 0
time step continuity errors : sum local = 7.15572e-08, global = 1.07848e-08, cumulative = -2.37032e-07
GAMGPCG:  Solving for p_rgh, Initial residual = 0.00360474, Final residual = 4.72775e-07, No Iterations 4
diagonal:  Solving for rho, Initial residual = 0, Final residual = 0, No Iterations 0
time step continuity errors : sum local = 3.53051e-08, global = -4.0146e-12, cumulative = -2.37036e-07
DILUPBiCGStab:  Solving for omega, Initial residual = 0.000170404, Final residual = 1.28553e-09, No Iterations 2
DILUPBiCGStab:  Solving for k, Initial residual = 0.0103462, Final residual = 3.67271e-09, No Iterations 3

ExecutionTime = 3.8 s  ClockTime = 3 s

    Overall     = 0.00194709, 0.01
Time = 278

diagonal:  Solving for rho, Initial residual = 0, Final residual = 0, No Iterations 0

Execution time for mesh.update() = 0 s

DILUPBiCGStab:  Solving for Ux, Initial residual = 0.00844754, Final residual = 4.4013e-09, No Iterations 3
DILUPBiCGStab:  Solving for Uy, Initial residual = 0.00860511, Final residual = 4.58524e-09, No Iterations 3
DILUPBiCGStab:  Solving for O2, Initial residual = 0.00508527, Final residual = 8.12951e-09, No Iterations 3
DILUPBiCGStab:  Solving for H2O, Initial residual = 0.00508526, Final residual = 8.12856e-09, No Iterations 3
DILUPBiCGStab:  Solving for CH4, Initial residual = 0, Final residual = 0, No Iterations 0
DILUPBiCGStab:  Solving for CO2, Initial residual = 0.00508526, Final residual = 8.12834e-09, No Iterations 3
DILUPBiCGStab:  Solving for h, Initial residual = 0.00586296, Final residual = 2.76512e-09, No Iterations 3
min/max(T) = 300, 1044.97
GAMGPCG:  Solving for p_rgh, Initial residual = 0.0240394, Final residual = 3.13514e-07, No Iterations 5
diagonal:  Solving for rho, Initial residual = 0, Final residual = 0, No Iterations 0
time step continuity errors : sum local = 2.39068e-08, global = -1.08541e-09, cumulative = -2.38121e-07
GAMGPCG:  Solving for p_rgh, Initial residual = 0.00361993, Final residual = 4.45995e-07, No Iterations 4
diagonal:  Solving for rho, Initial residual = 0, Final residual = 0, No Iterations 0
time step continuity errors : sum local = 3.33924e-08, global = 2.55307e-10, cumulative = -2.37866e-07
DILUPBiCGStab:  Solving for omega, Initial residual = 0.000170922, Final residual = 1.33732e-09, No Iterations 2
DILUPBiCGStab:  Solving for k, Initial residual = 0.0103528, Final residual = 3.5756e-09, No Iterations 3

ExecutionTime = 3.92 s  ClockTime = 4 s

    Overall     = 0.00194025, 0.01
Time = 279

diagonal:  Solving for rho, Initial residual = 0, Final residual = 0, No Iterations 0

Execution time for mesh.update() = 0 s

DILUPBiCGStab:  Solving for Ux, Initial residual = 0.00840925, Final residual = 5.00314e-09, No Iterations 3
DILUPBiCGStab:  Solving for Uy, Initial residual = 0.00860819, Final residual = 4.58475e-09, No Iterations 3
DILUPBiCGStab:  Solving for O2, Initial residual = 0.0050529, Final residual = 3.03065e-09, No Iterations 3
DILUPBiCGStab:  Solving for H2O, Initial residual = 0.00505289, Final residual = 3.03052e-09, No Iterations 3
DILUPBiCGStab:  Solving for CH4, Initial residual = 0, Final residual = 0, No Iterations 0
DILUPBiCGStab:  Solving for CO2, Initial residual = 0.00505289, Final residual = 3.03049e-09, No Iterations 3
DILUPBiCGStab:  Solving for h, Initial residual = 0.00582586, Final residual = 5.27099e-09, No Iterations 3
min/max(T) = 300, 1044.97
GAMGPCG:  Solving for p_rgh, Initial residual = 0.0236655, Final residual = 1.73879e-07, No Iterations 5
diagonal:  Solving for rho, Initial residual = 0, Final residual = 0, No Iterations 0
time step continuity errors : sum local = 1.35804e-08, global = -8.14948e-10, cumulative = -2.38681e-07
GAMGPCG:  Solving for p_rgh, Initial residual = 0.00367582, Final residual = 4.94883e-07, No Iterations 4
diagonal:  Solving for rho, Initial residual = 0, Final residual = 0, No Iterations 0
time step continuity errors : sum local = 3.71842e-08, global = -1.2745e-11, cumulative = -2.38694e-07
DILUPBiCGStab:  Solving for omega, Initial residual = 0.000169948, Final residual = 1.23153e-09, No Iterations 2
DILUPBiCGStab:  Solving for k, Initial residual = 0.0103692, Final residual = 3.55475e-09, No Iterations 3

ExecutionTime = 4.04 s  ClockTime = 4 s

    Overall     = 0.00194019, 0.01
Time = 280

diagonal:  Solving for rho, Initial residual = 0, Final residual = 0, No Iterations 0

Execution time for mesh.update() = 0 s

DILUPBiCGStab:  Solving for Ux, Initial residual = 0.00841804, Final residual = 5.26518e-09, No Iterations 3
DILUPBiCGStab:  Solving for Uy, Initial residual = 0.00856766, Final residual = 4.58399e-09, No Iterations 3
GAMGPCG:  Solving for G, Initial residual = 0.196033, Final residual = 7.9477e-05, No Iterations 6
DILUPBiCGStab:  Solving for O2, Initial residual = 0.00501683, Final residual = 2.13247e-09, No Iterations 3
DILUPBiCGStab:  Solving for H2O, Initial residual = 0.00501682, Final residual = 2.13239e-09, No Iterations 3
DILUPBiCGStab:  Solving for CH4, Initial residual = 0, Final residual = 0, No Iterations 0
DILUPBiCGStab:  Solving for CO2, Initial residual = 0.00501682, Final residual = 2.13238e-09, No Iterations 3
DILUPBiCGStab:  Solving for h, Initial residual = 0.00578454, Final residual = 9.06955e-09, No Iterations 3
min/max(T) = 300, 1044.97
GAMGPCG:  Solving for p_rgh, Initial residual = 0.0231722, Final residual = 2.81601e-07, No Iterations 5
diagonal:  Solving for rho, Initial residual = 0, Final residual = 0, No Iterations 0
time step continuity errors : sum local = 2.16656e-08, global = -2.88233e-09, cumulative = -2.41576e-07
GAMGPCG:  Solving for p_rgh, Initial residual = 0.00357917, Final residual = 5.45451e-07, No Iterations 4
diagonal:  Solving for rho, Initial residual = 0, Final residual = 0, No Iterations 0
time step continuity errors : sum local = 4.11973e-08, global = 4.54711e-11, cumulative = -2.41531e-07
DILUPBiCGStab:  Solving for omega, Initial residual = 0.000170883, Final residual = 1.26057e-09, No Iterations 2
DILUPBiCGStab:  Solving for k, Initial residual = 0.010366, Final residual = 3.33931e-09, No Iterations 3

ExecutionTime = 4.3 s  ClockTime = 4 s

    Overall     = 0.00193401, 0.01
Time = 281

diagonal:  Solving for rho, Initial residual = 0, Final residual = 0, No Iterations 0

Execution time for mesh.update() = 0 s

DILUPBiCGStab:  Solving for Ux, Initial residual = 0.00839544, Final residual = 5.55814e-09, No Iterations 3
DILUPBiCGStab:  Solving for Uy, Initial residual = 0.00854357, Final residual = 4.74299e-09, No Iterations 3
DILUPBiCGStab:  Solving for O2, Initial residual = 0.00499669, Final residual = 7.676e-09, No Iterations 3
DILUPBiCGStab:  Solving for H2O, Initial residual = 0.00499668, Final residual = 7.67593e-09, No Iterations 3
DILUPBiCGStab:  Solving for CH4, Initial residual = 0, Final residual = 0, No Iterations 0
DILUPBiCGStab:  Solving for CO2, Initial residual = 0.00499668, Final residual = 7.67593e-09, No Iterations 3
DILUPBiCGStab:  Solving for h, Initial residual = 0.00576137, Final residual = 7.43991e-10, No Iterations 3
min/max(T) = 300, 1044.97
GAMGPCG:  Solving for p_rgh, Initial residual = 0.0235754, Final residual = 2.21114e-07, No Iterations 5
diagonal:  Solving for rho, Initial residual = 0, Final residual = 0, No Iterations 0
time step continuity errors : sum local = 1.74678e-08, global = -1.80658e-09, cumulative = -2.43337e-07
GAMGPCG:  Solving for p_rgh, Initial residual = 0.00362908, Final residual = 5.61637e-07, No Iterations 4
diagonal:  Solving for rho, Initial residual = 0, Final residual = 0, No Iterations 0
time step continuity errors : sum local = 4.23091e-08, global = 1.84079e-10, cumulative = -2.43153e-07
DILUPBiCGStab:  Solving for omega, Initial residual = 0.000169814, Final residual = 1.18121e-09, No Iterations 2
DILUPBiCGStab:  Solving for k, Initial residual = 0.0103536, Final residual = 3.30643e-09, No Iterations 3

ExecutionTime = 4.42 s  ClockTime = 4 s

    Overall     = 0.00193366, 0.01
Time = 282

diagonal:  Solving for rho, Initial residual = 0, Final residual = 0, No Iterations 0

Execution time for mesh.update() = 0 s

DILUPBiCGStab:  Solving for Ux, Initial residual = 0.00840454, Final residual = 6.53016e-09, No Iterations 3
DILUPBiCGStab:  Solving for Uy, Initial residual = 0.00855702, Final residual = 4.61945e-09, No Iterations 3
DILUPBiCGStab:  Solving for O2, Initial residual = 0.00495633, Final residual = 5.15332e-09, No Iterations 3
DILUPBiCGStab:  Solving for H2O, Initial residual = 0.00495632, Final residual = 5.15331e-09, No Iterations 3
DILUPBiCGStab:  Solving for CH4, Initial residual = 0, Final residual = 0, No Iterations 0
DILUPBiCGStab:  Solving for CO2, Initial residual = 0.00495632, Final residual = 5.15332e-09, No Iterations 3
DILUPBiCGStab:  Solving for h, Initial residual = 0.00570805, Final residual = 5.39685e-09, No Iterations 3
min/max(T) = 300, 1044.97
GAMGPCG:  Solving for p_rgh, Initial residual = 0.0234184, Final residual = 2.49974e-07, No Iterations 5
diagonal:  Solving for rho, Initial residual = 0, Final residual = 0, No Iterations 0
time step continuity errors : sum local = 1.94068e-08, global = -2.18326e-09, cumulative = -2.45336e-07
GAMGPCG:  Solving for p_rgh, Initial residual = 0.00367936, Final residual = 5.37683e-07, No Iterations 4
diagonal:  Solving for rho, Initial residual = 0, Final residual = 0, No Iterations 0
time step continuity errors : sum local = 4.05764e-08, global = -5.7981e-11, cumulative = -2.45394e-07
DILUPBiCGStab:  Solving for omega, Initial residual = 0.000169761, Final residual = 1.30484e-09, No Iterations 2
DILUPBiCGStab:  Solving for k, Initial residual = 0.010386, Final residual = 3.2249e-09, No Iterations 3

ExecutionTime = 4.54 s  ClockTime = 4 s

    Overall     = 0.0019269, 0.01
Time = 283

diagonal:  Solving for rho, Initial residual = 0, Final residual = 0, No Iterations 0

Execution time for mesh.update() = 0 s

DILUPBiCGStab:  Solving for Ux, Initial residual = 0.0083795, Final residual = 6.98025e-09, No Iterations 3
DILUPBiCGStab:  Solving for Uy, Initial residual = 0.00855071, Final residual = 4.62201e-09, No Iterations 3
DILUPBiCGStab:  Solving for O2, Initial residual = 0.00491723, Final residual = 4.60073e-09, No Iterations 3
DILUPBiCGStab:  Solving for H2O, Initial residual = 0.00491723, Final residual = 4.60073e-09, No Iterations 3
DILUPBiCGStab:  Solving for CH4, Initial residual = 0, Final residual = 0, No Iterations 0
DILUPBiCGStab:  Solving for CO2, Initial residual = 0.00491723, Final residual = 4.60073e-09, No Iterations 3
DILUPBiCGStab:  Solving for h, Initial residual = 0.00566654, Final residual = 4.73616e-09, No Iterations 3
min/max(T) = 300, 1044.97
GAMGPCG:  Solving for p_rgh, Initial residual = 0.0228678, Final residual = 2.08087e-07, No Iterations 5
diagonal:  Solving for rho, Initial residual = 0, Final residual = 0, No Iterations 0
time step continuity errors : sum local = 1.65066e-08, global = -2.10595e-09, cumulative = -2.475e-07
GAMGPCG:  Solving for p_rgh, Initial residual = 0.00368554, Final residual = 4.76278e-07, No Iterations 4
diagonal:  Solving for rho, Initial residual = 0, Final residual = 0, No Iterations 0
time step continuity errors : sum local = 3.67185e-08, global = 9.97852e-11, cumulative = -2.474e-07
DILUPBiCGStab:  Solving for omega, Initial residual = 0.000171285, Final residual = 1.34282e-09, No Iterations 2
DILUPBiCGStab:  Solving for k, Initial residual = 0.0104285, Final residual = 3.39693e-09, No Iterations 3

ExecutionTime = 4.66 s  ClockTime = 4 s

    Overall     = 0.0019244, 0.01
Time = 284

diagonal:  Solving for rho, Initial residual = 0, Final residual = 0, No Iterations 0

Execution time for mesh.update() = 0 s

DILUPBiCGStab:  Solving for Ux, Initial residual = 0.008379, Final residual = 7.44748e-09, No Iterations 3
DILUPBiCGStab:  Solving for Uy, Initial residual = 0.0085506, Final residual = 4.24665e-09, No Iterations 3
DILUPBiCGStab:  Solving for O2, Initial residual = 0.00489494, Final residual = 4.35348e-09, No Iterations 3
DILUPBiCGStab:  Solving for H2O, Initial residual = 0.00489493, Final residual = 4.35348e-09, No Iterations 3
DILUPBiCGStab:  Solving for CH4, Initial residual = 0, Final residual = 0, No Iterations 0
DILUPBiCGStab:  Solving for CO2, Initial residual = 0.00489493, Final residual = 4.35348e-09, No Iterations 3
DILUPBiCGStab:  Solving for h, Initial residual = 0.00564146, Final residual = 4.34976e-09, No Iterations 3
min/max(T) = 300, 1044.97
GAMGPCG:  Solving for p_rgh, Initial residual = 0.0230417, Final residual = 2.65546e-07, No Iterations 5
diagonal:  Solving for rho, Initial residual = 0, Final residual = 0, No Iterations 0
time step continuity errors : sum local = 2.10126e-08, global = -1.34028e-09, cumulative = -2.48741e-07
GAMGPCG:  Solving for p_rgh, Initial residual = 0.00373495, Final residual = 4.67567e-07, No Iterations 4
diagonal:  Solving for rho, Initial residual = 0, Final residual = 0, No Iterations 0
time step continuity errors : sum local = 3.61585e-08, global = 3.08649e-10, cumulative = -2.48432e-07
DILUPBiCGStab:  Solving for omega, Initial residual = 0.000170062, Final residual = 1.34771e-09, No Iterations 2
DILUPBiCGStab:  Solving for k, Initial residual = 0.0104684, Final residual = 4.00777e-09, No Iterations 3

ExecutionTime = 4.78 s  ClockTime = 4 s

    Overall     = 0.00191903, 0.01
Time = 285

diagonal:  Solving for rho, Initial residual = 0, Final residual = 0, No Iterations 0

Execution time for mesh.update() = 0 s

DILUPBiCGStab:  Solving for Ux, Initial residual = 0.00835805, Final residual = 8.81414e-09, No Iterations 3
DILUPBiCGStab:  Solving for Uy, Initial residual = 0.00853757, Final residual = 4.44784e-09, No Iterations 3
DILUPBiCGStab:  Solving for O2, Initial residual = 0.00487396, Final residual = 3.6337e-09, No Iterations 3
DILUPBiCGStab:  Solving for H2O, Initial residual = 0.00487396, Final residual = 3.63371e-09, No Iterations 3
DILUPBiCGStab:  Solving for CH4, Initial residual = 0, Final residual = 0, No Iterations 0
DILUPBiCGStab:  Solving for CO2, Initial residual = 0.00487396, Final residual = 3.63371e-09, No Iterations 3
DILUPBiCGStab:  Solving for h, Initial residual = 0.00561682, Final residual = 3.31974e-09, No Iterations 3
min/max(T) = 300, 1044.97
GAMGPCG:  Solving for p_rgh, Initial residual = 0.0227151, Final residual = 2.25733e-07, No Iterations 5
diagonal:  Solving for rho, Initial residual = 0, Final residual = 0, No Iterations 0
time step continuity errors : sum local = 1.76993e-08, global = -9.83985e-10, cumulative = -2.49416e-07
GAMGPCG:  Solving for p_rgh, Initial residual = 0.00365376, Final residual = 4.34222e-07, No Iterations 4
diagonal:  Solving for rho, Initial residual = 0, Final residual = 0, No Iterations 0
time step continuity errors : sum local = 3.34252e-08, global = -2.37069e-10, cumulative = -2.49653e-07
DILUPBiCGStab:  Solving for omega, Initial residual = 0.000169952, Final residual = 1.31318e-09, No Iterations 2
DILUPBiCGStab:  Solving for k, Initial residual = 0.0104922, Final residual = 5.24749e-09, No Iterations 3

ExecutionTime = 4.9 s  ClockTime = 4 s

    Overall     = 0.00191566, 0.01
Time = 286

diagonal:  Solving for rho, Initial residual = 0, Final residual = 0, No Iterations 0

Execution time for mesh.update() = 0 s

DILUPBiCGStab:  Solving for Ux, Initial residual = 0.00833393, Final residual = 9.62053e-09, No Iterations 3
DILUPBiCGStab:  Solving for Uy, Initial residual = 0.00851587, Final residual = 4.32157e-09, No Iterations 3
DILUPBiCGStab:  Solving for O2, Initial residual = 0.00484744, Final residual = 3.43693e-09, No Iterations 3
DILUPBiCGStab:  Solving for H2O, Initial residual = 0.00484743, Final residual = 3.43693e-09, No Iterations 3
DILUPBiCGStab:  Solving for CH4, Initial residual = 0, Final residual = 0, No Iterations 0
DILUPBiCGStab:  Solving for CO2, Initial residual = 0.00484743, Final residual = 3.43693e-09, No Iterations 3
DILUPBiCGStab:  Solving for h, Initial residual = 0.00558493, Final residual = 3.14089e-09, No Iterations 3
min/max(T) = 300, 1044.97
GAMGPCG:  Solving for p_rgh, Initial residual = 0.0228137, Final residual = 2.48129e-07, No Iterations 5
diagonal:  Solving for rho, Initial residual = 0, Final residual = 0, No Iterations 0
time step continuity errors : sum local = 1.96369e-08, global = -1.55576e-09, cumulative = -2.51209e-07
GAMGPCG:  Solving for p_rgh, Initial residual = 0.00371906, Final residual = 4.5911e-07, No Iterations 4
diagonal:  Solving for rho, Initial residual = 0, Final residual = 0, No Iterations 0
time step continuity errors : sum local = 3.49791e-08, global = 7.26247e-10, cumulative = -2.50483e-07
DILUPBiCGStab:  Solving for omega, Initial residual = 0.000169095, Final residual = 1.34719e-09, No Iterations 2
DILUPBiCGStab:  Solving for k, Initial residual = 0.0105457, Final residual = 2.43984e-11, No Iterations 4

ExecutionTime = 5.02 s  ClockTime = 5 s

    Overall     = 0.0019101, 0.01
Time = 287

diagonal:  Solving for rho, Initial residual = 0, Final residual = 0, No Iterations 0

Execution time for mesh.update() = 0.01 s

DILUPBiCGStab:  Solving for Ux, Initial residual = 0.00832069, Final residual = 9.62257e-10, No Iterations 3
DILUPBiCGStab:  Solving for Uy, Initial residual = 0.00849371, Final residual = 4.58125e-09, No Iterations 3
DILUPBiCGStab:  Solving for O2, Initial residual = 0.00482591, Final residual = 3.08003e-09, No Iterations 3
DILUPBiCGStab:  Solving for H2O, Initial residual = 0.0048259, Final residual = 3.08003e-09, No Iterations 3
DILUPBiCGStab:  Solving for CH4, Initial residual = 0, Final residual = 0, No Iterations 0
DILUPBiCGStab:  Solving for CO2, Initial residual = 0.00482591, Final residual = 3.08003e-09, No Iterations 3
DILUPBiCGStab:  Solving for h, Initial residual = 0.00555671, Final residual = 2.75981e-09, No Iterations 3
min/max(T) = 300, 1044.97
GAMGPCG:  Solving for p_rgh, Initial residual = 0.0227954, Final residual = 2.10059e-07, No Iterations 5
diagonal:  Solving for rho, Initial residual = 0, Final residual = 0, No Iterations 0
time step continuity errors : sum local = 1.64875e-08, global = -2.09449e-09, cumulative = -2.52577e-07
GAMGPCG:  Solving for p_rgh, Initial residual = 0.00363969, Final residual = 4.74633e-07, No Iterations 4
diagonal:  Solving for rho, Initial residual = 0, Final residual = 0, No Iterations 0
time step continuity errors : sum local = 3.63479e-08, global = 6.88856e-10, cumulative = -2.51888e-07
DILUPBiCGStab:  Solving for omega, Initial residual = 0.000169223, Final residual = 1.32999e-09, No Iterations 2
DILUPBiCGStab:  Solving for k, Initial residual = 0.0105886, Final residual = 1.02167e-09, No Iterations 3

ExecutionTime = 5.14 s  ClockTime = 5 s

    Overall     = 0.00190692, 0.01
Time = 288

diagonal:  Solving for rho, Initial residual = 0, Final residual = 0, No Iterations 0

Execution time for mesh.update() = 0 s

DILUPBiCGStab:  Solving for Ux, Initial residual = 0.00833641, Final residual = 1.16982e-09, No Iterations 3
DILUPBiCGStab:  Solving for Uy, Initial residual = 0.00848048, Final residual = 4.85235e-09, No Iterations 3
DILUPBiCGStab:  Solving for O2, Initial residual = 0.00480378, Final residual = 2.65165e-09, No Iterations 3
DILUPBiCGStab:  Solving for H2O, Initial residual = 0.00480377, Final residual = 2.65166e-09, No Iterations 3
DILUPBiCGStab:  Solving for CH4, Initial residual = 0, Final residual = 0, No Iterations 0
DILUPBiCGStab:  Solving for CO2, Initial residual = 0.00480377, Final residual = 2.65166e-09, No Iterations 3
DILUPBiCGStab:  Solving for h, Initial residual = 0.00553407, Final residual = 2.33001e-09, No Iterations 3
min/max(T) = 300, 1044.97
GAMGPCG:  Solving for p_rgh, Initial residual = 0.0229495, Final residual = 2.37189e-07, No Iterations 5
diagonal:  Solving for rho, Initial residual = 0, Final residual = 0, No Iterations 0
time step continuity errors : sum local = 1.85583e-08, global = -2.18659e-09, cumulative = -2.54075e-07
GAMGPCG:  Solving for p_rgh, Initial residual = 0.00362751, Final residual = 4.34231e-07, No Iterations 4
diagonal:  Solving for rho, Initial residual = 0, Final residual = 0, No Iterations 0
time step continuity errors : sum local = 3.33177e-08, global = 7.58071e-10, cumulative = -2.53317e-07
DILUPBiCGStab:  Solving for omega, Initial residual = 0.000167439, Final residual = 1.36063e-09, No Iterations 2
DILUPBiCGStab:  Solving for k, Initial residual = 0.0106194, Final residual = 5.62445e-09, No Iterations 3

ExecutionTime = 5.27 s  ClockTime = 5 s

    Overall     = 0.0019024, 0.01
Time = 289

diagonal:  Solving for rho, Initial residual = 0, Final residual = 0, No Iterations 0

Execution time for mesh.update() = 0 s

DILUPBiCGStab:  Solving for Ux, Initial residual = 0.00834429, Final residual = 1.01469e-09, No Iterations 3
DILUPBiCGStab:  Solving for Uy, Initial residual = 0.00845029, Final residual = 4.82605e-09, No Iterations 3
DILUPBiCGStab:  Solving for O2, Initial residual = 0.00477156, Final residual = 2.27654e-09, No Iterations 3
DILUPBiCGStab:  Solving for H2O, Initial residual = 0.00477155, Final residual = 2.27654e-09, No Iterations 3
DILUPBiCGStab:  Solving for CH4, Initial residual = 0, Final residual = 0, No Iterations 0
DILUPBiCGStab:  Solving for CO2, Initial residual = 0.00477155, Final residual = 2.27654e-09, No Iterations 3
DILUPBiCGStab:  Solving for h, Initial residual = 0.0054939, Final residual = 2.07448e-09, No Iterations 3
min/max(T) = 300, 1044.97
GAMGPCG:  Solving for p_rgh, Initial residual = 0.0228144, Final residual = 1.97175e-07, No Iterations 5
diagonal:  Solving for rho, Initial residual = 0, Final residual = 0, No Iterations 0
time step continuity errors : sum local = 1.54907e-08, global = -1.9561e-09, cumulative = -2.55273e-07
GAMGPCG:  Solving for p_rgh, Initial residual = 0.00363059, Final residual = 4.69011e-07, No Iterations 4
diagonal:  Solving for rho, Initial residual = 0, Final residual = 0, No Iterations 0
time step continuity errors : sum local = 3.60133e-08, global = 6.26339e-10, cumulative = -2.54647e-07
DILUPBiCGStab:  Solving for omega, Initial residual = 0.00016724, Final residual = 1.27253e-09, No Iterations 2
DILUPBiCGStab:  Solving for k, Initial residual = 0.0106665, Final residual = 4.86441e-09, No Iterations 3

ExecutionTime = 5.39 s  ClockTime = 5 s

    Overall     = 0.0018989, 0.01
Time = 290

diagonal:  Solving for rho, Initial residual = 0, Final residual = 0, No Iterations 0

Execution time for mesh.update() = 0 s

DILUPBiCGStab:  Solving for Ux, Initial residual = 0.0083259, Final residual = 8.90392e-10, No Iterations 3
DILUPBiCGStab:  Solving for Uy, Initial residual = 0.00843138, Final residual = 5.12744e-09, No Iterations 3
GAMGPCG:  Solving for G, Initial residual = 0.196214, Final residual = 8.09338e-05, No Iterations 7
DILUPBiCGStab:  Solving for O2, Initial residual = 0.0047467, Final residual = 2.03109e-09, No Iterations 3
DILUPBiCGStab:  Solving for H2O, Initial residual = 0.00474669, Final residual = 2.03109e-09, No Iterations 3
DILUPBiCGStab:  Solving for CH4, Initial residual = 0, Final residual = 0, No Iterations 0
DILUPBiCGStab:  Solving for CO2, Initial residual = 0.00474669, Final residual = 2.03109e-09, No Iterations 3
DILUPBiCGStab:  Solving for h, Initial residual = 0.00546598, Final residual = 1.85416e-09, No Iterations 3
min/max(T) = 300, 1044.97
GAMGPCG:  Solving for p_rgh, Initial residual = 0.023696, Final residual = 2.04673e-07, No Iterations 5
diagonal:  Solving for rho, Initial residual = 0, Final residual = 0, No Iterations 0
time step continuity errors : sum local = 1.61937e-08, global = -1.21558e-09, cumulative = -2.55862e-07
GAMGPCG:  Solving for p_rgh, Initial residual = 0.00367585, Final residual = 4.01139e-07, No Iterations 4
diagonal:  Solving for rho, Initial residual = 0, Final residual = 0, No Iterations 0
time step continuity errors : sum local = 3.12817e-08, global = 1.0044e-09, cumulative = -2.54858e-07
DILUPBiCGStab:  Solving for omega, Initial residual = 0.000166006, Final residual = 1.30448e-09, No Iterations 2
DILUPBiCGStab:  Solving for k, Initial residual = 0.010731, Final residual = 4.69233e-09, No Iterations 3

ExecutionTime = 5.65 s  ClockTime = 5 s

    Overall     = 0.00189411, 0.01
Time = 291

diagonal:  Solving for rho, Initial residual = 0, Final residual = 0, No Iterations 0

Execution time for mesh.update() = 0 s

DILUPBiCGStab:  Solving for Ux, Initial residual = 0.00833277, Final residual = 7.07388e-09, No Iterations 3
DILUPBiCGStab:  Solving for Uy, Initial residual = 0.00845318, Final residual = 5.27225e-09, No Iterations 3
DILUPBiCGStab:  Solving for O2, Initial residual = 0.00472212, Final residual = 1.83272e-09, No Iterations 3
DILUPBiCGStab:  Solving for H2O, Initial residual = 0.00472211, Final residual = 1.83272e-09, No Iterations 3
DILUPBiCGStab:  Solving for CH4, Initial residual = 0, Final residual = 0, No Iterations 0
DILUPBiCGStab:  Solving for CO2, Initial residual = 0.00472211, Final residual = 1.83272e-09, No Iterations 3
DILUPBiCGStab:  Solving for h, Initial residual = 0.00544454, Final residual = 1.64187e-09, No Iterations 3
min/max(T) = 300, 1044.97
GAMGPCG:  Solving for p_rgh, Initial residual = 0.0235433, Final residual = 1.88786e-07, No Iterations 5
diagonal:  Solving for rho, Initial residual = 0, Final residual = 0, No Iterations 0
time step continuity errors : sum local = 1.48338e-08, global = -9.50637e-10, cumulative = -2.55808e-07
GAMGPCG:  Solving for p_rgh, Initial residual = 0.00373317, Final residual = 3.75264e-07, No Iterations 4
diagonal:  Solving for rho, Initial residual = 0, Final residual = 0, No Iterations 0
time step continuity errors : sum local = 2.90264e-08, global = 1.03878e-09, cumulative = -2.5477e-07
DILUPBiCGStab:  Solving for omega, Initial residual = 0.000165482, Final residual = 1.2202e-09, No Iterations 2
DILUPBiCGStab:  Solving for k, Initial residual = 0.0107768, Final residual = 4.32775e-09, No Iterations 3

ExecutionTime = 5.77 s  ClockTime = 5 s

    Overall     = 0.00189048, 0.01
Time = 292

diagonal:  Solving for rho, Initial residual = 0, Final residual = 0, No Iterations 0

Execution time for mesh.update() = 0 s

DILUPBiCGStab:  Solving for Ux, Initial residual = 0.00830092, Final residual = 6.2854e-09, No Iterations 3
DILUPBiCGStab:  Solving for Uy, Initial residual = 0.00841521, Final residual = 5.03719e-09, No Iterations 3
DILUPBiCGStab:  Solving for O2, Initial residual = 0.00470076, Final residual = 1.92916e-09, No Iterations 3
DILUPBiCGStab:  Solving for H2O, Initial residual = 0.00470075, Final residual = 1.92916e-09, No Iterations 3
DILUPBiCGStab:  Solving for CH4, Initial residual = 0, Final residual = 0, No Iterations 0
DILUPBiCGStab:  Solving for CO2, Initial residual = 0.00470075, Final residual = 1.92916e-09, No Iterations 3
DILUPBiCGStab:  Solving for h, Initial residual = 0.00541807, Final residual = 1.69565e-09, No Iterations 3
min/max(T) = 300, 1044.97
GAMGPCG:  Solving for p_rgh, Initial residual = 0.0231371, Final residual = 1.69543e-07, No Iterations 5
diagonal:  Solving for rho, Initial residual = 0, Final residual = 0, No Iterations 0
time step continuity errors : sum local = 1.33654e-08, global = -1.07509e-09, cumulative = -2.55845e-07
GAMGPCG:  Solving for p_rgh, Initial residual = 0.00366013, Final residual = 3.6573e-07, No Iterations 4
diagonal:  Solving for rho, Initial residual = 0, Final residual = 0, No Iterations 0
time step continuity errors : sum local = 2.86317e-08, global = 1.12821e-09, cumulative = -2.54716e-07
DILUPBiCGStab:  Solving for omega, Initial residual = 0.000167067, Final residual = 1.28472e-09, No Iterations 2
DILUPBiCGStab:  Solving for k, Initial residual = 0.0107691, Final residual = 3.78045e-09, No Iterations 3

ExecutionTime = 5.89 s  ClockTime = 5 s

    Overall     = 0.00188543, 0.01
Time = 293

diagonal:  Solving for rho, Initial residual = 0, Final residual = 0, No Iterations 0

Execution time for mesh.update() = 0 s

[...]

Execution time for mesh.update() = 0 s

DILUPBiCGStab:  Solving for Ux, Initial residual = 0.00560572, Final residual = 1.02525e-09, No Iterations 3
DILUPBiCGStab:  Solving for Uy, Initial residual = 0.00439463, Final residual = 8.31262e-09, No Iterations 3
GAMGPCG:  Solving for G, Initial residual = 0.144428, Final residual = 3.53603e-05, No Iterations 6
DILUPBiCGStab:  Solving for O2, Initial residual = 0.00246269, Final residual = 2.93095e-09, No Iterations 3
DILUPBiCGStab:  Solving for H2O, Initial residual = 0.00246269, Final residual = 2.93095e-09, No Iterations 3
DILUPBiCGStab:  Solving for CH4, Initial residual = 0, Final residual = 0, No Iterations 0
DILUPBiCGStab:  Solving for CO2, Initial residual = 0.00246269, Final residual = 2.93095e-09, No Iterations 3
DILUPBiCGStab:  Solving for h, Initial residual = 0.00272618, Final residual = 2.81354e-09, No Iterations 3
min/max(T) = 300, 1044.97
GAMGPCG:  Solving for p_rgh, Initial residual = 0.0192777, Final residual = 4.60943e-07, No Iterations 5
diagonal:  Solving for rho, Initial residual = 0, Final residual = 0, No Iterations 0
time step continuity errors : sum local = 1.46651e-08, global = -1.62411e-09, cumulative = 2.60796e-06
GAMGPCG:  Solving for p_rgh, Initial residual = 0.00353647, Final residual = 7.50228e-07, No Iterations 4
diagonal:  Solving for rho, Initial residual = 0, Final residual = 0, No Iterations 0
time step continuity errors : sum local = 2.40395e-08, global = 2.83721e-09, cumulative = 2.6108e-06
DILUPBiCGStab:  Solving for omega, Initial residual = 0.000103318, Final residual = 1.77149e-09, No Iterations 2
DILUPBiCGStab:  Solving for k, Initial residual = 0.00443027, Final residual = 5.21641e-11, No Iterations 4

ExecutionTime = 299.46 s  ClockTime = 299 s

    Overall     = 0.00126135, 0.01
Time = 2491

diagonal:  Solving for rho, Initial residual = 0, Final residual = 0, No Iterations 0

Execution time for mesh.update() = 0 s

DILUPBiCGStab:  Solving for Ux, Initial residual = 0.00560215, Final residual = 8.38492e-09, No Iterations 3
DILUPBiCGStab:  Solving for Uy, Initial residual = 0.00440668, Final residual = 8.17592e-09, No Iterations 3
DILUPBiCGStab:  Solving for O2, Initial residual = 0.00246023, Final residual = 3.17885e-09, No Iterations 3
DILUPBiCGStab:  Solving for H2O, Initial residual = 0.00246023, Final residual = 3.17885e-09, No Iterations 3
DILUPBiCGStab:  Solving for CH4, Initial residual = 0, Final residual = 0, No Iterations 0
DILUPBiCGStab:  Solving for CO2, Initial residual = 0.00246023, Final residual = 3.17885e-09, No Iterations 3
DILUPBiCGStab:  Solving for h, Initial residual = 0.00272714, Final residual = 3.0165e-09, No Iterations 3
min/max(T) = 300, 1044.97
GAMGPCG:  Solving for p_rgh, Initial residual = 0.0196351, Final residual = 4.46467e-07, No Iterations 5
diagonal:  Solving for rho, Initial residual = 0, Final residual = 0, No Iterations 0
time step continuity errors : sum local = 1.41598e-08, global = -1.61736e-09, cumulative = 2.60918e-06
GAMGPCG:  Solving for p_rgh, Initial residual = 0.00357782, Final residual = 7.80496e-07, No Iterations 4
diagonal:  Solving for rho, Initial residual = 0, Final residual = 0, No Iterations 0
time step continuity errors : sum local = 2.48393e-08, global = 2.7504e-09, cumulative = 2.61193e-06
DILUPBiCGStab:  Solving for omega, Initial residual = 0.000103041, Final residual = 1.77054e-09, No Iterations 2
DILUPBiCGStab:  Solving for k, Initial residual = 0.00444763, Final residual = 9.34997e-09, No Iterations 3

ExecutionTime = 299.58 s  ClockTime = 299 s

    Overall     = 0.00126469, 0.01
Time = 2492

diagonal:  Solving for rho, Initial residual = 0, Final residual = 0, No Iterations 0

Execution time for mesh.update() = 0 s

DILUPBiCGStab:  Solving for Ux, Initial residual = 0.00561852, Final residual = 7.85414e-09, No Iterations 3
DILUPBiCGStab:  Solving for Uy, Initial residual = 0.00439293, Final residual = 8.26321e-09, No Iterations 3
DILUPBiCGStab:  Solving for O2, Initial residual = 0.00246321, Final residual = 3.13391e-09, No Iterations 3
DILUPBiCGStab:  Solving for H2O, Initial residual = 0.00246321, Final residual = 3.13391e-09, No Iterations 3
DILUPBiCGStab:  Solving for CH4, Initial residual = 0, Final residual = 0, No Iterations 0
DILUPBiCGStab:  Solving for CO2, Initial residual = 0.00246321, Final residual = 3.13391e-09, No Iterations 3
DILUPBiCGStab:  Solving for h, Initial residual = 0.00273156, Final residual = 3.11929e-09, No Iterations 3
min/max(T) = 300, 1044.97
GAMGPCG:  Solving for p_rgh, Initial residual = 0.0195644, Final residual = 4.80884e-07, No Iterations 5
diagonal:  Solving for rho, Initial residual = 0, Final residual = 0, No Iterations 0
time step continuity errors : sum local = 1.5184e-08, global = -9.44465e-10, cumulative = 2.61099e-06
GAMGPCG:  Solving for p_rgh, Initial residual = 0.00356775, Final residual = 7.39377e-07, No Iterations 4
diagonal:  Solving for rho, Initial residual = 0, Final residual = 0, No Iterations 0
time step continuity errors : sum local = 2.36067e-08, global = 2.86379e-09, cumulative = 2.61385e-06
DILUPBiCGStab:  Solving for omega, Initial residual = 0.000103299, Final residual = 1.83351e-09, No Iterations 2
DILUPBiCGStab:  Solving for k, Initial residual = 0.00447432, Final residual = 7.09459e-09, No Iterations 3

ExecutionTime = 299.7 s  ClockTime = 299 s

    Overall     = 0.00126343, 0.01
Time = 2493

diagonal:  Solving for rho, Initial residual = 0, Final residual = 0, No Iterations 0

Execution time for mesh.update() = 0 s

DILUPBiCGStab:  Solving for Ux, Initial residual = 0.00562859, Final residual = 7.87919e-09, No Iterations 3
DILUPBiCGStab:  Solving for Uy, Initial residual = 0.00440422, Final residual = 9.52783e-09, No Iterations 3
DILUPBiCGStab:  Solving for O2, Initial residual = 0.0024647, Final residual = 3.09822e-09, No Iterations 3
DILUPBiCGStab:  Solving for H2O, Initial residual = 0.0024647, Final residual = 3.09822e-09, No Iterations 3
DILUPBiCGStab:  Solving for CH4, Initial residual = 0, Final residual = 0, No Iterations 0
DILUPBiCGStab:  Solving for CO2, Initial residual = 0.0024647, Final residual = 3.09822e-09, No Iterations 3
DILUPBiCGStab:  Solving for h, Initial residual = 0.00273281, Final residual = 3.07597e-09, No Iterations 3
min/max(T) = 300, 1044.97
GAMGPCG:  Solving for p_rgh, Initial residual = 0.0199796, Final residual = 4.58337e-07, No Iterations 5
diagonal:  Solving for rho, Initial residual = 0, Final residual = 0, No Iterations 0
time step continuity errors : sum local = 1.45363e-08, global = -7.85343e-10, cumulative = 2.61306e-06
GAMGPCG:  Solving for p_rgh, Initial residual = 0.00355632, Final residual = 7.92599e-07, No Iterations 4
diagonal:  Solving for rho, Initial residual = 0, Final residual = 0, No Iterations 0
time step continuity errors : sum local = 2.51937e-08, global = 3.02196e-09, cumulative = 2.61609e-06
DILUPBiCGStab:  Solving for omega, Initial residual = 0.000104127, Final residual = 1.79486e-09, No Iterations 2
DILUPBiCGStab:  Solving for k, Initial residual = 0.00448662, Final residual = 3.06953e-09, No Iterations 3

ExecutionTime = 299.82 s  ClockTime = 299 s

    Overall     = 0.00126711, 0.01
Time = 2494

diagonal:  Solving for rho, Initial residual = 0, Final residual = 0, No Iterations 0

Execution time for mesh.update() = 0 s

DILUPBiCGStab:  Solving for Ux, Initial residual = 0.00567274, Final residual = 7.60668e-09, No Iterations 3
DILUPBiCGStab:  Solving for Uy, Initial residual = 0.00441948, Final residual = 1.25309e-09, No Iterations 3
DILUPBiCGStab:  Solving for O2, Initial residual = 0.00247158, Final residual = 2.80459e-09, No Iterations 3
DILUPBiCGStab:  Solving for H2O, Initial residual = 0.00247158, Final residual = 2.80459e-09, No Iterations 3
DILUPBiCGStab:  Solving for CH4, Initial residual = 0, Final residual = 0, No Iterations 0
DILUPBiCGStab:  Solving for CO2, Initial residual = 0.00247158, Final residual = 2.80459e-09, No Iterations 3
DILUPBiCGStab:  Solving for h, Initial residual = 0.00274566, Final residual = 2.85296e-09, No Iterations 3
min/max(T) = 300, 1044.97
GAMGPCG:  Solving for p_rgh, Initial residual = 0.0196385, Final residual = 5.15496e-07, No Iterations 5
diagonal:  Solving for rho, Initial residual = 0, Final residual = 0, No Iterations 0
time step continuity errors : sum local = 1.6277e-08, global = -1.39922e-10, cumulative = 2.61595e-06
GAMGPCG:  Solving for p_rgh, Initial residual = 0.00353051, Final residual = 7.43919e-07, No Iterations 4
diagonal:  Solving for rho, Initial residual = 0, Final residual = 0, No Iterations 0
time step continuity errors : sum local = 2.37112e-08, global = 2.81515e-09, cumulative = 2.61876e-06
DILUPBiCGStab:  Solving for omega, Initial residual = 0.000104512, Final residual = 1.76953e-09, No Iterations 2
DILUPBiCGStab:  Solving for k, Initial residual = 0.00449876, Final residual = 3.32395e-09, No Iterations 3

ExecutionTime = 299.94 s  ClockTime = 300 s

    Overall     = 0.00126621, 0.01
Time = 2495

diagonal:  Solving for rho, Initial residual = 0, Final residual = 0, No Iterations 0

Execution time for mesh.update() = 0 s

DILUPBiCGStab:  Solving for Ux, Initial residual = 0.00566188, Final residual = 7.65167e-09, No Iterations 3
DILUPBiCGStab:  Solving for Uy, Initial residual = 0.00441894, Final residual = 1.28781e-09, No Iterations 3
DILUPBiCGStab:  Solving for O2, Initial residual = 0.0024746, Final residual = 5.63054e-09, No Iterations 3
DILUPBiCGStab:  Solving for H2O, Initial residual = 0.0024746, Final residual = 5.63054e-09, No Iterations 3
DILUPBiCGStab:  Solving for CH4, Initial residual = 0, Final residual = 0, No Iterations 0
DILUPBiCGStab:  Solving for CO2, Initial residual = 0.0024746, Final residual = 5.63054e-09, No Iterations 3
DILUPBiCGStab:  Solving for h, Initial residual = 0.00274898, Final residual = 3.26563e-09, No Iterations 3
min/max(T) = 300, 1044.97
GAMGPCG:  Solving for p_rgh, Initial residual = 0.0194427, Final residual = 4.94661e-07, No Iterations 5
diagonal:  Solving for rho, Initial residual = 0, Final residual = 0, No Iterations 0
time step continuity errors : sum local = 1.56024e-08, global = -1.70687e-10, cumulative = 2.61859e-06
GAMGPCG:  Solving for p_rgh, Initial residual = 0.00347527, Final residual = 7.66586e-07, No Iterations 4
diagonal:  Solving for rho, Initial residual = 0, Final residual = 0, No Iterations 0
time step continuity errors : sum local = 2.42818e-08, global = 2.73793e-09, cumulative = 2.62133e-06
DILUPBiCGStab:  Solving for omega, Initial residual = 0.000104145, Final residual = 1.75409e-09, No Iterations 2
DILUPBiCGStab:  Solving for k, Initial residual = 0.00451324, Final residual = 8.21289e-10, No Iterations 3

ExecutionTime = 300.06 s  ClockTime = 300 s

    Overall     = 0.00127001, 0.01
Time = 2496

diagonal:  Solving for rho, Initial residual = 0, Final residual = 0, No Iterations 0

Execution time for mesh.update() = 0 s

DILUPBiCGStab:  Solving for Ux, Initial residual = 0.00567043, Final residual = 7.6228e-09, No Iterations 3
DILUPBiCGStab:  Solving for Uy, Initial residual = 0.00441987, Final residual = 7.96527e-09, No Iterations 3
DILUPBiCGStab:  Solving for O2, Initial residual = 0.0024773, Final residual = 2.52422e-09, No Iterations 3
DILUPBiCGStab:  Solving for H2O, Initial residual = 0.0024773, Final residual = 2.52422e-09, No Iterations 3
DILUPBiCGStab:  Solving for CH4, Initial residual = 0, Final residual = 0, No Iterations 0
DILUPBiCGStab:  Solving for CO2, Initial residual = 0.0024773, Final residual = 2.52422e-09, No Iterations 3
DILUPBiCGStab:  Solving for h, Initial residual = 0.00275608, Final residual = 6.17579e-09, No Iterations 3
min/max(T) = 300, 1044.97
GAMGPCG:  Solving for p_rgh, Initial residual = 0.0196569, Final residual = 5.30747e-07, No Iterations 5
diagonal:  Solving for rho, Initial residual = 0, Final residual = 0, No Iterations 0
time step continuity errors : sum local = 1.65996e-08, global = 4.89928e-11, cumulative = 2.62138e-06
GAMGPCG:  Solving for p_rgh, Initial residual = 0.00350431, Final residual = 7.25351e-07, No Iterations 4
diagonal:  Solving for rho, Initial residual = 0, Final residual = 0, No Iterations 0
time step continuity errors : sum local = 2.29218e-08, global = 2.30028e-09, cumulative = 2.62368e-06
DILUPBiCGStab:  Solving for omega, Initial residual = 0.000104212, Final residual = 1.74438e-09, No Iterations 2
DILUPBiCGStab:  Solving for k, Initial residual = 0.00453008, Final residual = 7.41169e-11, No Iterations 4

ExecutionTime = 300.18 s  ClockTime = 300 s

    Overall     = 0.00126946, 0.01
Time = 2497

diagonal:  Solving for rho, Initial residual = 0, Final residual = 0, No Iterations 0

Execution time for mesh.update() = 0 s

DILUPBiCGStab:  Solving for Ux, Initial residual = 0.00566496, Final residual = 7.68405e-09, No Iterations 3
DILUPBiCGStab:  Solving for Uy, Initial residual = 0.00442407, Final residual = 6.46461e-09, No Iterations 3
DILUPBiCGStab:  Solving for O2, Initial residual = 0.00247921, Final residual = 8.68125e-10, No Iterations 3
DILUPBiCGStab:  Solving for H2O, Initial residual = 0.00247921, Final residual = 8.68125e-10, No Iterations 3
DILUPBiCGStab:  Solving for CH4, Initial residual = 0, Final residual = 0, No Iterations 0
DILUPBiCGStab:  Solving for CO2, Initial residual = 0.00247921, Final residual = 8.68125e-10, No Iterations 3
DILUPBiCGStab:  Solving for h, Initial residual = 0.00276113, Final residual = 3.77394e-09, No Iterations 3
min/max(T) = 300, 1044.97
GAMGPCG:  Solving for p_rgh, Initial residual = 0.0193589, Final residual = 4.82493e-07, No Iterations 5
diagonal:  Solving for rho, Initial residual = 0, Final residual = 0, No Iterations 0
time step continuity errors : sum local = 1.50274e-08, global = -5.02848e-10, cumulative = 2.62317e-06
GAMGPCG:  Solving for p_rgh, Initial residual = 0.00349787, Final residual = 7.71551e-07, No Iterations 4
diagonal:  Solving for rho, Initial residual = 0, Final residual = 0, No Iterations 0
time step continuity errors : sum local = 2.40921e-08, global = 2.10916e-09, cumulative = 2.62528e-06
DILUPBiCGStab:  Solving for omega, Initial residual = 0.000104347, Final residual = 1.76284e-09, No Iterations 2
DILUPBiCGStab:  Solving for k, Initial residual = 0.00455819, Final residual = 2.21903e-09, No Iterations 3

ExecutionTime = 300.3 s  ClockTime = 300 s

    Overall     = 0.00127349, 0.01
Time = 2498

diagonal:  Solving for rho, Initial residual = 0, Final residual = 0, No Iterations 0

Execution time for mesh.update() = 0 s

DILUPBiCGStab:  Solving for Ux, Initial residual = 0.0056697, Final residual = 8.10447e-09, No Iterations 3
DILUPBiCGStab:  Solving for Uy, Initial residual = 0.00442256, Final residual = 6.5894e-09, No Iterations 3
DILUPBiCGStab:  Solving for O2, Initial residual = 0.00248183, Final residual = 1.14635e-09, No Iterations 3
DILUPBiCGStab:  Solving for H2O, Initial residual = 0.00248183, Final residual = 1.14635e-09, No Iterations 3
DILUPBiCGStab:  Solving for CH4, Initial residual = 0, Final residual = 0, No Iterations 0
DILUPBiCGStab:  Solving for CO2, Initial residual = 0.00248183, Final residual = 1.14635e-09, No Iterations 3
DILUPBiCGStab:  Solving for h, Initial residual = 0.00276159, Final residual = 4.47817e-09, No Iterations 3
min/max(T) = 300, 1044.97
GAMGPCG:  Solving for p_rgh, Initial residual = 0.0189358, Final residual = 5.0649e-07, No Iterations 5
diagonal:  Solving for rho, Initial residual = 0, Final residual = 0, No Iterations 0
time step continuity errors : sum local = 1.57297e-08, global = -2.49936e-10, cumulative = 2.62503e-06
GAMGPCG:  Solving for p_rgh, Initial residual = 0.00347769, Final residual = 6.93797e-07, No Iterations 4
diagonal:  Solving for rho, Initial residual = 0, Final residual = 0, No Iterations 0
time step continuity errors : sum local = 2.17137e-08, global = 1.96058e-09, cumulative = 2.62699e-06
DILUPBiCGStab:  Solving for omega, Initial residual = 0.000105181, Final residual = 1.63466e-09, No Iterations 2
DILUPBiCGStab:  Solving for k, Initial residual = 0.00458932, Final residual = 2.3419e-09, No Iterations 3

ExecutionTime = 300.43 s  ClockTime = 300 s

    Overall     = 0.00127326, 0.01
Time = 2499

diagonal:  Solving for rho, Initial residual = 0, Final residual = 0, No Iterations 0

Execution time for mesh.update() = 0 s

DILUPBiCGStab:  Solving for Ux, Initial residual = 0.00566427, Final residual = 9.47559e-09, No Iterations 3
DILUPBiCGStab:  Solving for Uy, Initial residual = 0.00443023, Final residual = 6.49906e-09, No Iterations 3
DILUPBiCGStab:  Solving for O2, Initial residual = 0.00248745, Final residual = 2.92099e-09, No Iterations 3
DILUPBiCGStab:  Solving for H2O, Initial residual = 0.00248745, Final residual = 2.92099e-09, No Iterations 3
DILUPBiCGStab:  Solving for CH4, Initial residual = 0, Final residual = 0, No Iterations 0
DILUPBiCGStab:  Solving for CO2, Initial residual = 0.00248745, Final residual = 2.92099e-09, No Iterations 3
DILUPBiCGStab:  Solving for h, Initial residual = 0.00276804, Final residual = 2.91345e-09, No Iterations 3
min/max(T) = 300, 1044.97
GAMGPCG:  Solving for p_rgh, Initial residual = 0.018974, Final residual = 4.54255e-07, No Iterations 5
diagonal:  Solving for rho, Initial residual = 0, Final residual = 0, No Iterations 0
time step continuity errors : sum local = 1.41891e-08, global = -4.73655e-10, cumulative = 2.62652e-06
GAMGPCG:  Solving for p_rgh, Initial residual = 0.00343371, Final residual = 6.85296e-07, No Iterations 4
diagonal:  Solving for rho, Initial residual = 0, Final residual = 0, No Iterations 0
time step continuity errors : sum local = 2.12752e-08, global = 2.38002e-09, cumulative = 2.6289e-06
DILUPBiCGStab:  Solving for omega, Initial residual = 0.000106333, Final residual = 1.66982e-09, No Iterations 2
DILUPBiCGStab:  Solving for k, Initial residual = 0.0046156, Final residual = 8.69695e-09, No Iterations 3

ExecutionTime = 300.55 s  ClockTime = 300 s

    Overall     = 0.00127764, 0.01
Time = 2500

diagonal:  Solving for rho, Initial residual = 0, Final residual = 0, No Iterations 0

Execution time for mesh.update() = 0 s

DILUPBiCGStab:  Solving for Ux, Initial residual = 0.00571953, Final residual = 7.26049e-09, No Iterations 3
DILUPBiCGStab:  Solving for Uy, Initial residual = 0.00447718, Final residual = 5.98655e-09, No Iterations 3
GAMGPCG:  Solving for G, Initial residual = 0.147544, Final residual = 9.27465e-05, No Iterations 5
DILUPBiCGStab:  Solving for O2, Initial residual = 0.00249365, Final residual = 3.8147e-09, No Iterations 3
DILUPBiCGStab:  Solving for H2O, Initial residual = 0.00249365, Final residual = 3.8147e-09, No Iterations 3
DILUPBiCGStab:  Solving for CH4, Initial residual = 0, Final residual = 0, No Iterations 0
DILUPBiCGStab:  Solving for CO2, Initial residual = 0.00249365, Final residual = 3.8147e-09, No Iterations 3
DILUPBiCGStab:  Solving for h, Initial residual = 0.00277252, Final residual = 3.56108e-09, No Iterations 3
min/max(T) = 300, 1044.97
GAMGPCG:  Solving for p_rgh, Initial residual = 0.0188101, Final residual = 4.69195e-07, No Iterations 5
diagonal:  Solving for rho, Initial residual = 0, Final residual = 0, No Iterations 0
time step continuity errors : sum local = 1.44748e-08, global = -4.32219e-10, cumulative = 2.62847e-06
GAMGPCG:  Solving for p_rgh, Initial residual = 0.0034736, Final residual = 6.00528e-07, No Iterations 4
diagonal:  Solving for rho, Initial residual = 0, Final residual = 0, No Iterations 0
time step continuity errors : sum local = 1.87402e-08, global = 2.23122e-09, cumulative = 2.6307e-06
DILUPBiCGStab:  Solving for omega, Initial residual = 0.000107547, Final residual = 1.82992e-09, No Iterations 2
DILUPBiCGStab:  Solving for k, Initial residual = 0.00462368, Final residual = 3.20443e-09, No Iterations 3

ExecutionTime = 300.8 s  ClockTime = 300 s


Patch Mean : 302.059
Patch Variance : 0.00303565
Patch Gradient : 0.144318
End
