/*---------------------------------------------------------------------------*\
  =========                 |
  \\      /  F ield         | OpenFOAM: The Open Source CFD Toolbox
   \\    /   O peration     | Website:  https://openfoam.org
    \\  /    A nd           | Version:  dev
     \\/     M anipulation  |
\*---------------------------------------------------------------------------*/
Build  : dev-cabe48fb62c1
Exec   : fireDyMFoam
Date   : Apr 15 2019
Time   : 14:30:54
Host   : "Host"
PID    : 9193
I/O    : uncollated
Case   : /home/tesla/OpenFOAM/tesla-dev/run/rollerOpt_COBYLA_NEW
nProcs : 1
sigFpe : Enabling floating point exception trapping (FOAM_SIGFPE).
fileModificationChecking : Monitoring run-time modified files using timeStampMaster (fileModificationSkew 10)
allowSystemOperations : Allowing user-supplied system call operations

// * * * * * * * * * * * * * * * * * * * * * * * * * * * * * * * * * * * * * //
Create time

--> FOAM Warning : 
    From function void* Foam::dlOpen(const Foam::fileName&, bool)
    in file POSIX.C at line 1268
    dlopen error : libgroovyBC.so: cannot open shared object file: No such file or directory
--> FOAM Warning : 
    From function bool Foam::dlLibraryTable::open(const Foam::fileName&, bool)
    in file db/dynamicLibrary/dlLibraryTable/dlLibraryTable.C at line 105
    could not load "libgroovyBC.so"
Create mesh for time = 250

Selecting dynamicFvMesh dynamicRefineFvMesh
Detected 539 cells that are protected from refinement. Writing these to cellSet protectedCells.

PIMPLE: No convergence criteria found


PIMPLE: Operating solver in PISO mode


Initializing Solver

Selecting thermodynamics package 
{
    type            hePsiThermo;
    mixture         reactingMixture;
    transport       sutherland;
    thermo          janaf;
    energy          sensibleEnthalpy;
    equationOfState perfectGas;
    specie          specie;
}

Selecting chemistryReader foamChemistryReader
    elements not defined in "/home/tesla/OpenFOAM/tesla-dev/run/rollerOpt_COBYLA_NEW/constant/reactions"
Reading/calculating face flux field phi

No MRF models present

Selecting turbulence model type RAS
Selecting RAS turbulence model kOmegaSST
Selecting patchDistMethod meshWave
kOmegaSSTCoeffs
{
    delta           cubeRootVol;
    cubeRootVolCoeffs
    {
        deltaCoeff      1;
    }
    alphaK1         0.85;
    alphaK2         1;
    alphaOmega1     0.5;
    alphaOmega2     0.856;
    gamma1          0.555556;
    gamma2          0.44;
    beta1           0.075;
    beta2           0.0828;
    betaStar        0.09;
    a1              0.31;
    b1              1;
    c1              10;
    F3              false;
}

Selecting combustion model none<psiThermoCombustion>
--> FOAM Warning : 
    From function static Foam::autoPtr<T> Foam::combustionModel::New(typename CombustionModel::reactionThermo&, const Foam::compressibleTurbulenceModel&, const Foam::word&) [with CombustionModel = Foam::CombustionModel<Foam::psiReactionThermo>; typename CombustionModel::reactionThermo = Foam::psiReactionThermo]
    in file /home/tesla/OpenFOAM/OpenFOAM-dev/src/combustionModels/lnInclude/combustionModelTemplates.C at line 69
    Template parameters are no longer required when selecting a combustionModel. This information is now obtained directly from the thermodynamics. Actually selecting combustion model none.

Reading g

Reading hRef
Calculating field g.h


Reading pRef
Selecting radiationModel P1
Selecting absorptionEmissionModel greyMeanAbsorptionEmission
Selecting scatterModel none
Selecting sootModel none
Creating finite volume options from "system/fvOptions"

No finite volume options present
Using LTS

Starting time loop

Using dynamicCode for functionObject patchCalcs at line 64 in "/home/tesla/OpenFOAM/tesla-dev/run/rollerOpt_COBYLA_NEW/system/controlDict.functions.patchCalcs"
    Overall     = 0.00134042, 0.01
Time = 251

diagonal:  Solving for rho, Initial residual = 0, Final residual = 0, No Iterations 0

Execution time for mesh.update() = 0 s

DILUPBiCGStab:  Solving for Ux, Initial residual = 0.00493422, Final residual = 2.87408e-09, No Iterations 3
DILUPBiCGStab:  Solving for Uy, Initial residual = 0.00792485, Final residual = 5.58479e-09, No Iterations 3
GAMGPCG:  Solving for G, Initial residual = 0.0256452, Final residual = 4.75764e-05, No Iterations 4
DILUPBiCGStab:  Solving for O2, Initial residual = 0.00292681, Final residual = 2.24664e-09, No Iterations 3
DILUPBiCGStab:  Solving for H2O, Initial residual = 0.00292676, Final residual = 2.24646e-09, No Iterations 3
DILUPBiCGStab:  Solving for CH4, Initial residual = 0, Final residual = 0, No Iterations 0
DILUPBiCGStab:  Solving for CO2, Initial residual = 0.00292676, Final residual = 2.24647e-09, No Iterations 3
DILUPBiCGStab:  Solving for h, Initial residual = 0.00332304, Final residual = 2.24735e-09, No Iterations 3
min/max(T) = 300, 1044.98
GAMGPCG:  Solving for p_rgh, Initial residual = 0.0194369, Final residual = 7.18237e-07, No Iterations 4
diagonal:  Solving for rho, Initial residual = 0, Final residual = 0, No Iterations 0
time step continuity errors : sum local = 2.46875e-06, global = -1.19249e-07, cumulative = -1.19249e-07
GAMGPCG:  Solving for p_rgh, Initial residual = 0.00234382, Final residual = 1.41958e-07, No Iterations 4
diagonal:  Solving for rho, Initial residual = 0, Final residual = 0, No Iterations 0
time step continuity errors : sum local = 2.46445e-06, global = -1.15423e-07, cumulative = -2.34672e-07
DILUPBiCGStab:  Solving for omega, Initial residual = 0.000101542, Final residual = 1.08315e-09, No Iterations 2
DILUPBiCGStab:  Solving for k, Initial residual = 0.00601616, Final residual = 2.96204e-09, No Iterations 3

ExecutionTime = 0.37 s  ClockTime = 0 s

    Overall     = 0.00133977, 0.01
Time = 252

diagonal:  Solving for rho, Initial residual = 0, Final residual = 0, No Iterations 0

Execution time for mesh.update() = 0 s

DILUPBiCGStab:  Solving for Ux, Initial residual = 0.00493308, Final residual = 3.10149e-09, No Iterations 3
DILUPBiCGStab:  Solving for Uy, Initial residual = 0.00789979, Final residual = 5.45599e-09, No Iterations 3
DILUPBiCGStab:  Solving for O2, Initial residual = 0.00293191, Final residual = 2.15446e-09, No Iterations 3
DILUPBiCGStab:  Solving for H2O, Initial residual = 0.00293188, Final residual = 2.15415e-09, No Iterations 3
DILUPBiCGStab:  Solving for CH4, Initial residual = 0, Final residual = 0, No Iterations 0
DILUPBiCGStab:  Solving for CO2, Initial residual = 0.00293188, Final residual = 2.15413e-09, No Iterations 3
DILUPBiCGStab:  Solving for h, Initial residual = 0.00332873, Final residual = 2.14961e-09, No Iterations 3
min/max(T) = 300, 1044.98
GAMGPCG:  Solving for p_rgh, Initial residual = 0.0194713, Final residual = 5.63024e-07, No Iterations 4
diagonal:  Solving for rho, Initial residual = 0, Final residual = 0, No Iterations 0
time step continuity errors : sum local = 3.35324e-08, global = 1.65076e-09, cumulative = -2.33021e-07
GAMGPCG:  Solving for p_rgh, Initial residual = 0.0023195, Final residual = 1.56421e-07, No Iterations 4
diagonal:  Solving for rho, Initial residual = 0, Final residual = 0, No Iterations 0
time step continuity errors : sum local = 9.19503e-09, global = 2.68216e-10, cumulative = -2.32753e-07
DILUPBiCGStab:  Solving for omega, Initial residual = 0.000100577, Final residual = 1.12626e-09, No Iterations 2
DILUPBiCGStab:  Solving for k, Initial residual = 0.00603547, Final residual = 2.88827e-09, No Iterations 3

ExecutionTime = 0.49 s  ClockTime = 0 s

    Overall     = 0.00134135, 0.01
Time = 253

diagonal:  Solving for rho, Initial residual = 0, Final residual = 0, No Iterations 0

Execution time for mesh.update() = 0 s

DILUPBiCGStab:  Solving for Ux, Initial residual = 0.00493111, Final residual = 2.66307e-09, No Iterations 3
DILUPBiCGStab:  Solving for Uy, Initial residual = 0.00787486, Final residual = 4.96258e-09, No Iterations 3
DILUPBiCGStab:  Solving for O2, Initial residual = 0.00293068, Final residual = 2.22113e-09, No Iterations 3
DILUPBiCGStab:  Solving for H2O, Initial residual = 0.00293067, Final residual = 2.22098e-09, No Iterations 3
DILUPBiCGStab:  Solving for CH4, Initial residual = 0, Final residual = 0, No Iterations 0
DILUPBiCGStab:  Solving for CO2, Initial residual = 0.00293066, Final residual = 2.22094e-09, No Iterations 3
DILUPBiCGStab:  Solving for h, Initial residual = 0.00333244, Final residual = 2.30196e-09, No Iterations 3
min/max(T) = 300, 1044.98
GAMGPCG:  Solving for p_rgh, Initial residual = 0.0196256, Final residual = 6.76461e-07, No Iterations 4
diagonal:  Solving for rho, Initial residual = 0, Final residual = 0, No Iterations 0
time step continuity errors : sum local = 4.05624e-08, global = -3.41627e-09, cumulative = -2.36169e-07
GAMGPCG:  Solving for p_rgh, Initial residual = 0.00225794, Final residual = 9.89944e-07, No Iterations 3
diagonal:  Solving for rho, Initial residual = 0, Final residual = 0, No Iterations 0
time step continuity errors : sum local = 5.75877e-08, global = -1.58247e-09, cumulative = -2.37751e-07
DILUPBiCGStab:  Solving for omega, Initial residual = 0.000100929, Final residual = 1.09146e-09, No Iterations 2
DILUPBiCGStab:  Solving for k, Initial residual = 0.00605574, Final residual = 3.23255e-09, No Iterations 3

ExecutionTime = 0.6 s  ClockTime = 1 s

    Overall     = 0.00134366, 0.01
Time = 254

diagonal:  Solving for rho, Initial residual = 0, Final residual = 0, No Iterations 0

Execution time for mesh.update() = 0 s

DILUPBiCGStab:  Solving for Ux, Initial residual = 0.00494774, Final residual = 2.59157e-09, No Iterations 3
DILUPBiCGStab:  Solving for Uy, Initial residual = 0.00786483, Final residual = 5.26221e-09, No Iterations 3
DILUPBiCGStab:  Solving for O2, Initial residual = 0.00293986, Final residual = 1.96935e-09, No Iterations 3
DILUPBiCGStab:  Solving for H2O, Initial residual = 0.00293985, Final residual = 1.96937e-09, No Iterations 3
DILUPBiCGStab:  Solving for CH4, Initial residual = 0, Final residual = 0, No Iterations 0
DILUPBiCGStab:  Solving for CO2, Initial residual = 0.00293985, Final residual = 1.96935e-09, No Iterations 3
DILUPBiCGStab:  Solving for h, Initial residual = 0.00334075, Final residual = 1.95582e-09, No Iterations 3
min/max(T) = 300, 1044.98
GAMGPCG:  Solving for p_rgh, Initial residual = 0.0195906, Final residual = 5.5224e-07, No Iterations 4
diagonal:  Solving for rho, Initial residual = 0, Final residual = 0, No Iterations 0
time step continuity errors : sum local = 3.25512e-08, global = 1.60702e-09, cumulative = -2.36144e-07
GAMGPCG:  Solving for p_rgh, Initial residual = 0.00231553, Final residual = 1.69362e-07, No Iterations 4
diagonal:  Solving for rho, Initial residual = 0, Final residual = 0, No Iterations 0
time step continuity errors : sum local = 9.83536e-09, global = 2.16443e-10, cumulative = -2.35928e-07
DILUPBiCGStab:  Solving for omega, Initial residual = 0.000101131, Final residual = 1.07973e-09, No Iterations 2
DILUPBiCGStab:  Solving for k, Initial residual = 0.00607289, Final residual = 3.2159e-09, No Iterations 3

ExecutionTime = 0.72 s  ClockTime = 1 s

    Overall     = 0.00134575, 0.01
Time = 255

diagonal:  Solving for rho, Initial residual = 0, Final residual = 0, No Iterations 0

Execution time for mesh.update() = 0 s

DILUPBiCGStab:  Solving for Ux, Initial residual = 0.00496676, Final residual = 2.55441e-09, No Iterations 3
DILUPBiCGStab:  Solving for Uy, Initial residual = 0.00784345, Final residual = 4.57395e-09, No Iterations 3
DILUPBiCGStab:  Solving for O2, Initial residual = 0.00294541, Final residual = 1.9293e-09, No Iterations 3
DILUPBiCGStab:  Solving for H2O, Initial residual = 0.0029454, Final residual = 1.92937e-09, No Iterations 3
DILUPBiCGStab:  Solving for CH4, Initial residual = 0, Final residual = 0, No Iterations 0
DILUPBiCGStab:  Solving for CO2, Initial residual = 0.0029454, Final residual = 1.92936e-09, No Iterations 3
DILUPBiCGStab:  Solving for h, Initial residual = 0.00335339, Final residual = 1.93693e-09, No Iterations 3
min/max(T) = 300, 1044.98
GAMGPCG:  Solving for p_rgh, Initial residual = 0.0199693, Final residual = 6.60933e-07, No Iterations 4
diagonal:  Solving for rho, Initial residual = 0, Final residual = 0, No Iterations 0
time step continuity errors : sum local = 3.96446e-08, global = -2.52218e-10, cumulative = -2.3618e-07
GAMGPCG:  Solving for p_rgh, Initial residual = 0.00221923, Final residual = 9.98637e-07, No Iterations 3
diagonal:  Solving for rho, Initial residual = 0, Final residual = 0, No Iterations 0
time step continuity errors : sum local = 5.8188e-08, global = -1.3225e-09, cumulative = -2.37503e-07
DILUPBiCGStab:  Solving for omega, Initial residual = 0.000100125, Final residual = 1.04889e-09, No Iterations 2
DILUPBiCGStab:  Solving for k, Initial residual = 0.00609137, Final residual = 3.21874e-09, No Iterations 3

ExecutionTime = 0.83 s  ClockTime = 1 s

    Overall     = 0.00134863, 0.01
Time = 256

diagonal:  Solving for rho, Initial residual = 0, Final residual = 0, No Iterations 0

Execution time for mesh.update() = 0 s

DILUPBiCGStab:  Solving for Ux, Initial residual = 0.00496982, Final residual = 2.55972e-09, No Iterations 3
DILUPBiCGStab:  Solving for Uy, Initial residual = 0.00784356, Final residual = 5.15332e-09, No Iterations 3
DILUPBiCGStab:  Solving for O2, Initial residual = 0.0029493, Final residual = 1.85154e-09, No Iterations 3
DILUPBiCGStab:  Solving for H2O, Initial residual = 0.00294929, Final residual = 1.85161e-09, No Iterations 3
DILUPBiCGStab:  Solving for CH4, Initial residual = 0, Final residual = 0, No Iterations 0
DILUPBiCGStab:  Solving for CO2, Initial residual = 0.00294929, Final residual = 1.85162e-09, No Iterations 3
DILUPBiCGStab:  Solving for h, Initial residual = 0.00335645, Final residual = 1.8503e-09, No Iterations 3
min/max(T) = 300, 1044.98
GAMGPCG:  Solving for p_rgh, Initial residual = 0.0203503, Final residual = 5.38142e-07, No Iterations 4
diagonal:  Solving for rho, Initial residual = 0, Final residual = 0, No Iterations 0
time step continuity errors : sum local = 3.16937e-08, global = 1.91459e-09, cumulative = -2.35588e-07
GAMGPCG:  Solving for p_rgh, Initial residual = 0.00232794, Final residual = 1.53268e-07, No Iterations 4
diagonal:  Solving for rho, Initial residual = 0, Final residual = 0, No Iterations 0
time step continuity errors : sum local = 8.93641e-09, global = 4.50742e-10, cumulative = -2.35137e-07
DILUPBiCGStab:  Solving for omega, Initial residual = 0.00010125, Final residual = 1.05185e-09, No Iterations 2
DILUPBiCGStab:  Solving for k, Initial residual = 0.0061072, Final residual = 3.64256e-09, No Iterations 3

ExecutionTime = 0.95 s  ClockTime = 1 s

    Overall     = 0.00135159, 0.01
Time = 257

diagonal:  Solving for rho, Initial residual = 0, Final residual = 0, No Iterations 0

Execution time for mesh.update() = 0 s

DILUPBiCGStab:  Solving for Ux, Initial residual = 0.00497216, Final residual = 2.66258e-09, No Iterations 3
DILUPBiCGStab:  Solving for Uy, Initial residual = 0.00780293, Final residual = 4.72514e-09, No Iterations 3
DILUPBiCGStab:  Solving for O2, Initial residual = 0.00295338, Final residual = 1.86658e-09, No Iterations 3
DILUPBiCGStab:  Solving for H2O, Initial residual = 0.00295336, Final residual = 1.86657e-09, No Iterations 3
DILUPBiCGStab:  Solving for CH4, Initial residual = 0, Final residual = 0, No Iterations 0
DILUPBiCGStab:  Solving for CO2, Initial residual = 0.00295336, Final residual = 1.86657e-09, No Iterations 3
DILUPBiCGStab:  Solving for h, Initial residual = 0.00336788, Final residual = 1.92049e-09, No Iterations 3
min/max(T) = 300, 1044.98
GAMGPCG:  Solving for p_rgh, Initial residual = 0.0208934, Final residual = 6.23493e-07, No Iterations 4
diagonal:  Solving for rho, Initial residual = 0, Final residual = 0, No Iterations 0
time step continuity errors : sum local = 3.68087e-08, global = -2.34083e-09, cumulative = -2.37478e-07
GAMGPCG:  Solving for p_rgh, Initial residual = 0.00233436, Final residual = 9.928e-07, No Iterations 3
diagonal:  Solving for rho, Initial residual = 0, Final residual = 0, No Iterations 0
time step continuity errors : sum local = 5.74641e-08, global = -1.90237e-09, cumulative = -2.39381e-07
DILUPBiCGStab:  Solving for omega, Initial residual = 0.000101204, Final residual = 1.04296e-09, No Iterations 2
DILUPBiCGStab:  Solving for k, Initial residual = 0.00611983, Final residual = 4.90133e-09, No Iterations 3

ExecutionTime = 1.06 s  ClockTime = 1 s

    Overall     = 0.00135512, 0.01
Time = 258

diagonal:  Solving for rho, Initial residual = 0, Final residual = 0, No Iterations 0

Execution time for mesh.update() = 0 s

DILUPBiCGStab:  Solving for Ux, Initial residual = 0.00500086, Final residual = 2.49662e-09, No Iterations 3
DILUPBiCGStab:  Solving for Uy, Initial residual = 0.00782599, Final residual = 5.45051e-09, No Iterations 3
DILUPBiCGStab:  Solving for O2, Initial residual = 0.00296096, Final residual = 1.69297e-09, No Iterations 3
DILUPBiCGStab:  Solving for H2O, Initial residual = 0.00296095, Final residual = 1.69295e-09, No Iterations 3
DILUPBiCGStab:  Solving for CH4, Initial residual = 0, Final residual = 0, No Iterations 0
DILUPBiCGStab:  Solving for CO2, Initial residual = 0.00296095, Final residual = 1.69296e-09, No Iterations 3
DILUPBiCGStab:  Solving for h, Initial residual = 0.00337798, Final residual = 1.60214e-09, No Iterations 3
min/max(T) = 300, 1044.98
GAMGPCG:  Solving for p_rgh, Initial residual = 0.021312, Final residual = 5.45327e-07, No Iterations 4
diagonal:  Solving for rho, Initial residual = 0, Final residual = 0, No Iterations 0
time step continuity errors : sum local = 3.191e-08, global = 1.49469e-09, cumulative = -2.37886e-07
GAMGPCG:  Solving for p_rgh, Initial residual = 0.00239193, Final residual = 1.83516e-07, No Iterations 4
diagonal:  Solving for rho, Initial residual = 0, Final residual = 0, No Iterations 0
time step continuity errors : sum local = 1.07974e-08, global = 7.95435e-12, cumulative = -2.37878e-07
DILUPBiCGStab:  Solving for omega, Initial residual = 0.000100834, Final residual = 1.01493e-09, No Iterations 2
DILUPBiCGStab:  Solving for k, Initial residual = 0.00614078, Final residual = 5.38888e-09, No Iterations 3

ExecutionTime = 1.18 s  ClockTime = 1 s

    Overall     = 0.00135863, 0.01
Time = 259

diagonal:  Solving for rho, Initial residual = 0, Final residual = 0, No Iterations 0

Execution time for mesh.update() = 0 s

DILUPBiCGStab:  Solving for Ux, Initial residual = 0.00501074, Final residual = 2.69984e-09, No Iterations 3
DILUPBiCGStab:  Solving for Uy, Initial residual = 0.00780476, Final residual = 4.5257e-09, No Iterations 3
DILUPBiCGStab:  Solving for O2, Initial residual = 0.00295709, Final residual = 1.71582e-09, No Iterations 3
DILUPBiCGStab:  Solving for H2O, Initial residual = 0.00295708, Final residual = 1.71576e-09, No Iterations 3
DILUPBiCGStab:  Solving for CH4, Initial residual = 0, Final residual = 0, No Iterations 0
DILUPBiCGStab:  Solving for CO2, Initial residual = 0.00295708, Final residual = 1.71576e-09, No Iterations 3
DILUPBiCGStab:  Solving for h, Initial residual = 0.00337387, Final residual = 1.49654e-09, No Iterations 3
min/max(T) = 300, 1044.98
GAMGPCG:  Solving for p_rgh, Initial residual = 0.0211924, Final residual = 6.22411e-07, No Iterations 4
diagonal:  Solving for rho, Initial residual = 0, Final residual = 0, No Iterations 0
time step continuity errors : sum local = 3.64931e-08, global = -9.76345e-10, cumulative = -2.38854e-07
GAMGPCG:  Solving for p_rgh, Initial residual = 0.00247091, Final residual = 8.57072e-07, No Iterations 3
diagonal:  Solving for rho, Initial residual = 0, Final residual = 0, No Iterations 0
time step continuity errors : sum local = 4.88939e-08, global = -1.52443e-09, cumulative = -2.40379e-07
DILUPBiCGStab:  Solving for omega, Initial residual = 0.000101681, Final residual = 1.0543e-09, No Iterations 2
DILUPBiCGStab:  Solving for k, Initial residual = 0.00618075, Final residual = 4.18176e-09, No Iterations 3

ExecutionTime = 1.29 s  ClockTime = 1 s

    Overall     = 0.00136305, 0.01
Time = 260

diagonal:  Solving for rho, Initial residual = 0, Final residual = 0, No Iterations 0

Execution time for mesh.update() = 0 s

DILUPBiCGStab:  Solving for Ux, Initial residual = 0.00503096, Final residual = 2.58852e-09, No Iterations 3
DILUPBiCGStab:  Solving for Uy, Initial residual = 0.00781, Final residual = 5.28322e-09, No Iterations 3
GAMGPCG:  Solving for G, Initial residual = 0.128271, Final residual = 3.3951e-05, No Iterations 6
DILUPBiCGStab:  Solving for O2, Initial residual = 0.00295662, Final residual = 1.57701e-09, No Iterations 3
DILUPBiCGStab:  Solving for H2O, Initial residual = 0.00295661, Final residual = 1.57701e-09, No Iterations 3
DILUPBiCGStab:  Solving for CH4, Initial residual = 0, Final residual = 0, No Iterations 0
DILUPBiCGStab:  Solving for CO2, Initial residual = 0.00295661, Final residual = 1.57701e-09, No Iterations 3
DILUPBiCGStab:  Solving for h, Initial residual = 0.00338376, Final residual = 1.40164e-09, No Iterations 3
min/max(T) = 300, 1044.98
GAMGPCG:  Solving for p_rgh, Initial residual = 0.0217156, Final residual = 5.41592e-07, No Iterations 4
diagonal:  Solving for rho, Initial residual = 0, Final residual = 0, No Iterations 0
time step continuity errors : sum local = 3.12706e-08, global = 1.92775e-09, cumulative = -2.38451e-07
GAMGPCG:  Solving for p_rgh, Initial residual = 0.00250398, Final residual = 1.35662e-07, No Iterations 4
diagonal:  Solving for rho, Initial residual = 0, Final residual = 0, No Iterations 0
time step continuity errors : sum local = 7.79292e-09, global = 4.03983e-10, cumulative = -2.38047e-07
DILUPBiCGStab:  Solving for omega, Initial residual = 0.000101015, Final residual = 1.01066e-09, No Iterations 2
DILUPBiCGStab:  Solving for k, Initial residual = 0.00619704, Final residual = 4.08987e-09, No Iterations 3

ExecutionTime = 1.54 s  ClockTime = 2 s

    Overall     = 0.00136699, 0.01
Time = 261

diagonal:  Solving for rho, Initial residual = 0, Final residual = 0, No Iterations 0

Execution time for mesh.update() = 0 s

DILUPBiCGStab:  Solving for Ux, Initial residual = 0.00503765, Final residual = 2.62118e-09, No Iterations 3
DILUPBiCGStab:  Solving for Uy, Initial residual = 0.00775645, Final residual = 4.6354e-09, No Iterations 3
DILUPBiCGStab:  Solving for O2, Initial residual = 0.00296003, Final residual = 1.57161e-09, No Iterations 3
DILUPBiCGStab:  Solving for H2O, Initial residual = 0.00296003, Final residual = 1.5716e-09, No Iterations 3
DILUPBiCGStab:  Solving for CH4, Initial residual = 0, Final residual = 0, No Iterations 0
DILUPBiCGStab:  Solving for CO2, Initial residual = 0.00296003, Final residual = 1.5716e-09, No Iterations 3
DILUPBiCGStab:  Solving for h, Initial residual = 0.00338547, Final residual = 1.42083e-09, No Iterations 3
min/max(T) = 300, 1044.98
GAMGPCG:  Solving for p_rgh, Initial residual = 0.020927, Final residual = 5.58919e-07, No Iterations 4
diagonal:  Solving for rho, Initial residual = 0, Final residual = 0, No Iterations 0
time step continuity errors : sum local = 3.26768e-08, global = 1.18388e-10, cumulative = -2.37929e-07
GAMGPCG:  Solving for p_rgh, Initial residual = 0.00247537, Final residual = 7.89831e-07, No Iterations 3
diagonal:  Solving for rho, Initial residual = 0, Final residual = 0, No Iterations 0
time step continuity errors : sum local = 4.45675e-08, global = -6.76127e-10, cumulative = -2.38605e-07
DILUPBiCGStab:  Solving for omega, Initial residual = 0.000100564, Final residual = 9.89387e-10, No Iterations 2
DILUPBiCGStab:  Solving for k, Initial residual = 0.00621304, Final residual = 3.22817e-09, No Iterations 3

ExecutionTime = 1.66 s  ClockTime = 2 s

    Overall     = 0.00137246, 0.01
Time = 262

diagonal:  Solving for rho, Initial residual = 0, Final residual = 0, No Iterations 0

Execution time for mesh.update() = 0 s

DILUPBiCGStab:  Solving for Ux, Initial residual = 0.00506268, Final residual = 2.43877e-09, No Iterations 3
DILUPBiCGStab:  Solving for Uy, Initial residual = 0.00775795, Final residual = 4.77178e-09, No Iterations 3
DILUPBiCGStab:  Solving for O2, Initial residual = 0.00296417, Final residual = 1.38158e-09, No Iterations 3
DILUPBiCGStab:  Solving for H2O, Initial residual = 0.00296417, Final residual = 1.38158e-09, No Iterations 3
DILUPBiCGStab:  Solving for CH4, Initial residual = 0, Final residual = 0, No Iterations 0
DILUPBiCGStab:  Solving for CO2, Initial residual = 0.00296417, Final residual = 1.38158e-09, No Iterations 3
DILUPBiCGStab:  Solving for h, Initial residual = 0.00339533, Final residual = 1.33067e-09, No Iterations 3
min/max(T) = 300, 1044.98
GAMGPCG:  Solving for p_rgh, Initial residual = 0.0210609, Final residual = 4.7437e-07, No Iterations 4
diagonal:  Solving for rho, Initial residual = 0, Final residual = 0, No Iterations 0
time step continuity errors : sum local = 2.77498e-08, global = 1.77293e-09, cumulative = -2.36832e-07
GAMGPCG:  Solving for p_rgh, Initial residual = 0.00254138, Final residual = 1.10181e-07, No Iterations 4
diagonal:  Solving for rho, Initial residual = 0, Final residual = 0, No Iterations 0
time step continuity errors : sum local = 6.31088e-09, global = 7.82633e-10, cumulative = -2.36049e-07
DILUPBiCGStab:  Solving for omega, Initial residual = 0.000100507, Final residual = 8.67385e-10, No Iterations 2
DILUPBiCGStab:  Solving for k, Initial residual = 0.00623587, Final residual = 2.59855e-09, No Iterations 3

ExecutionTime = 1.77 s  ClockTime = 2 s

    Overall     = 0.0013769, 0.01
Time = 263

diagonal:  Solving for rho, Initial residual = 0, Final residual = 0, No Iterations 0

Execution time for mesh.update() = 0 s

DILUPBiCGStab:  Solving for Ux, Initial residual = 0.00506283, Final residual = 2.6659e-09, No Iterations 3
DILUPBiCGStab:  Solving for Uy, Initial residual = 0.0077215, Final residual = 4.28483e-09, No Iterations 3
DILUPBiCGStab:  Solving for O2, Initial residual = 0.00296444, Final residual = 1.51472e-09, No Iterations 3
DILUPBiCGStab:  Solving for H2O, Initial residual = 0.00296443, Final residual = 1.51472e-09, No Iterations 3
DILUPBiCGStab:  Solving for CH4, Initial residual = 0, Final residual = 0, No Iterations 0
DILUPBiCGStab:  Solving for CO2, Initial residual = 0.00296443, Final residual = 1.51472e-09, No Iterations 3
DILUPBiCGStab:  Solving for h, Initial residual = 0.00339895, Final residual = 1.44205e-09, No Iterations 3
min/max(T) = 300, 1044.98
GAMGPCG:  Solving for p_rgh, Initial residual = 0.0212872, Final residual = 4.14385e-07, No Iterations 4
diagonal:  Solving for rho, Initial residual = 0, Final residual = 0, No Iterations 0
time step continuity errors : sum local = 2.40473e-08, global = 1.91317e-09, cumulative = -2.34136e-07
GAMGPCG:  Solving for p_rgh, Initial residual = 0.00239355, Final residual = 8.98903e-08, No Iterations 4
diagonal:  Solving for rho, Initial residual = 0, Final residual = 0, No Iterations 0
time step continuity errors : sum local = 5.13119e-09, global = 7.23207e-10, cumulative = -2.33413e-07
DILUPBiCGStab:  Solving for omega, Initial residual = 9.99188e-05, Final residual = 8.66759e-10, No Iterations 2
DILUPBiCGStab:  Solving for k, Initial residual = 0.00626935, Final residual = 1.89598e-09, No Iterations 3

ExecutionTime = 1.89 s  ClockTime = 2 s

    Overall     = 0.00138335, 0.01
Time = 264

diagonal:  Solving for rho, Initial residual = 0, Final residual = 0, No Iterations 0

Execution time for mesh.update() = 0 s

DILUPBiCGStab:  Solving for Ux, Initial residual = 0.00506236, Final residual = 2.61645e-09, No Iterations 3
DILUPBiCGStab:  Solving for Uy, Initial residual = 0.00769281, Final residual = 4.95169e-09, No Iterations 3
DILUPBiCGStab:  Solving for O2, Initial residual = 0.00296614, Final residual = 1.44032e-09, No Iterations 3
DILUPBiCGStab:  Solving for H2O, Initial residual = 0.00296613, Final residual = 1.4403e-09, No Iterations 3
DILUPBiCGStab:  Solving for CH4, Initial residual = 0, Final residual = 0, No Iterations 0
DILUPBiCGStab:  Solving for CO2, Initial residual = 0.00296613, Final residual = 1.4403e-09, No Iterations 3
DILUPBiCGStab:  Solving for h, Initial residual = 0.00341114, Final residual = 1.41847e-09, No Iterations 3
min/max(T) = 300, 1044.98
GAMGPCG:  Solving for p_rgh, Initial residual = 0.0213163, Final residual = 6.07337e-07, No Iterations 4
diagonal:  Solving for rho, Initial residual = 0, Final residual = 0, No Iterations 0
time step continuity errors : sum local = 3.54114e-08, global = 1.77407e-09, cumulative = -2.31639e-07
GAMGPCG:  Solving for p_rgh, Initial residual = 0.00248148, Final residual = 9.43118e-08, No Iterations 4
diagonal:  Solving for rho, Initial residual = 0, Final residual = 0, No Iterations 0
time step continuity errors : sum local = 5.27631e-09, global = 9.07094e-10, cumulative = -2.30732e-07
DILUPBiCGStab:  Solving for omega, Initial residual = 9.99393e-05, Final residual = 8.31331e-10, No Iterations 2
DILUPBiCGStab:  Solving for k, Initial residual = 0.00627585, Final residual = 1.65356e-09, No Iterations 3

ExecutionTime = 2 s  ClockTime = 2 s

    Overall     = 0.00138871, 0.01
Time = 265

diagonal:  Solving for rho, Initial residual = 0, Final residual = 0, No Iterations 0

Execution time for mesh.update() = 0 s

DILUPBiCGStab:  Solving for Ux, Initial residual = 0.0050964, Final residual = 2.57558e-09, No Iterations 3
DILUPBiCGStab:  Solving for Uy, Initial residual = 0.00772153, Final residual = 4.35419e-09, No Iterations 3
DILUPBiCGStab:  Solving for O2, Initial residual = 0.00297662, Final residual = 1.48974e-09, No Iterations 3
DILUPBiCGStab:  Solving for H2O, Initial residual = 0.00297661, Final residual = 1.48972e-09, No Iterations 3
DILUPBiCGStab:  Solving for CH4, Initial residual = 0, Final residual = 0, No Iterations 0
DILUPBiCGStab:  Solving for CO2, Initial residual = 0.00297661, Final residual = 1.48971e-09, No Iterations 3
DILUPBiCGStab:  Solving for h, Initial residual = 0.00342188, Final residual = 1.5292e-09, No Iterations 3
min/max(T) = 300, 1044.98
GAMGPCG:  Solving for p_rgh, Initial residual = 0.0217997, Final residual = 4.36799e-07, No Iterations 4
diagonal:  Solving for rho, Initial residual = 0, Final residual = 0, No Iterations 0
time step continuity errors : sum local = 2.50471e-08, global = 2.21416e-09, cumulative = -2.28517e-07
GAMGPCG:  Solving for p_rgh, Initial residual = 0.00246664, Final residual = 1.15797e-07, No Iterations 4
diagonal:  Solving for rho, Initial residual = 0, Final residual = 0, No Iterations 0
time step continuity errors : sum local = 6.52227e-09, global = 8.66874e-10, cumulative = -2.27651e-07
DILUPBiCGStab:  Solving for omega, Initial residual = 0.00010041, Final residual = 8.60681e-10, No Iterations 2
DILUPBiCGStab:  Solving for k, Initial residual = 0.00627036, Final residual = 1.50232e-09, No Iterations 3

ExecutionTime = 2.12 s  ClockTime = 2 s

    Overall     = 0.00139684, 0.01
Time = 266

diagonal:  Solving for rho, Initial residual = 0, Final residual = 0, No Iterations 0

Execution time for mesh.update() = 0 s

DILUPBiCGStab:  Solving for Ux, Initial residual = 0.00509252, Final residual = 2.786e-09, No Iterations 3
DILUPBiCGStab:  Solving for Uy, Initial residual = 0.00767471, Final residual = 4.96716e-09, No Iterations 3
DILUPBiCGStab:  Solving for O2, Initial residual = 0.00297359, Final residual = 1.62309e-09, No Iterations 3
DILUPBiCGStab:  Solving for H2O, Initial residual = 0.00297358, Final residual = 1.62306e-09, No Iterations 3
DILUPBiCGStab:  Solving for CH4, Initial residual = 0, Final residual = 0, No Iterations 0
DILUPBiCGStab:  Solving for CO2, Initial residual = 0.00297358, Final residual = 1.62306e-09, No Iterations 3
DILUPBiCGStab:  Solving for h, Initial residual = 0.00342429, Final residual = 1.57493e-09, No Iterations 3
min/max(T) = 300, 1044.98
GAMGPCG:  Solving for p_rgh, Initial residual = 0.0216773, Final residual = 4.01835e-07, No Iterations 4
diagonal:  Solving for rho, Initial residual = 0, Final residual = 0, No Iterations 0
time step continuity errors : sum local = 2.3243e-08, global = 2.22155e-11, cumulative = -2.27628e-07
GAMGPCG:  Solving for p_rgh, Initial residual = 0.00246975, Final residual = 9.48095e-07, No Iterations 3
diagonal:  Solving for rho, Initial residual = 0, Final residual = 0, No Iterations 0
time step continuity errors : sum local = 5.23906e-08, global = -1.25113e-09, cumulative = -2.28879e-07
DILUPBiCGStab:  Solving for omega, Initial residual = 0.00010018, Final residual = 8.39722e-10, No Iterations 2
DILUPBiCGStab:  Solving for k, Initial residual = 0.00628644, Final residual = 1.5972e-09, No Iterations 3

ExecutionTime = 2.23 s  ClockTime = 2 s

    Overall     = 0.0014036, 0.01
Time = 267

diagonal:  Solving for rho, Initial residual = 0, Final residual = 0, No Iterations 0

Execution time for mesh.update() = 0 s

DILUPBiCGStab:  Solving for Ux, Initial residual = 0.00508355, Final residual = 2.6936e-09, No Iterations 3
DILUPBiCGStab:  Solving for Uy, Initial residual = 0.0076626, Final residual = 4.15162e-09, No Iterations 3
DILUPBiCGStab:  Solving for O2, Initial residual = 0.00297835, Final residual = 1.70258e-09, No Iterations 3
DILUPBiCGStab:  Solving for H2O, Initial residual = 0.00297835, Final residual = 1.70254e-09, No Iterations 3
DILUPBiCGStab:  Solving for CH4, Initial residual = 0, Final residual = 0, No Iterations 0
DILUPBiCGStab:  Solving for CO2, Initial residual = 0.00297835, Final residual = 1.70254e-09, No Iterations 3
DILUPBiCGStab:  Solving for h, Initial residual = 0.00343421, Final residual = 1.73333e-09, No Iterations 3
min/max(T) = 300, 1044.98
GAMGPCG:  Solving for p_rgh, Initial residual = 0.021221, Final residual = 4.4082e-07, No Iterations 4
diagonal:  Solving for rho, Initial residual = 0, Final residual = 0, No Iterations 0
time step continuity errors : sum local = 2.51251e-08, global = 1.79222e-09, cumulative = -2.27087e-07
GAMGPCG:  Solving for p_rgh, Initial residual = 0.00250445, Final residual = 1.39639e-07, No Iterations 4
diagonal:  Solving for rho, Initial residual = 0, Final residual = 0, No Iterations 0
time step continuity errors : sum local = 7.79145e-09, global = 1.18092e-09, cumulative = -2.25906e-07
DILUPBiCGStab:  Solving for omega, Initial residual = 9.93661e-05, Final residual = 8.65074e-10, No Iterations 2
DILUPBiCGStab:  Solving for k, Initial residual = 0.00630869, Final residual = 1.52629e-09, No Iterations 3

ExecutionTime = 2.35 s  ClockTime = 2 s

    Overall     = 0.00141371, 0.01
Time = 268

diagonal:  Solving for rho, Initial residual = 0, Final residual = 0, No Iterations 0

Execution time for mesh.update() = 0 s

DILUPBiCGStab:  Solving for Ux, Initial residual = 0.00512486, Final residual = 2.88671e-09, No Iterations 3
DILUPBiCGStab:  Solving for Uy, Initial residual = 0.00765998, Final residual = 4.2255e-09, No Iterations 3
DILUPBiCGStab:  Solving for O2, Initial residual = 0.00298632, Final residual = 1.77733e-09, No Iterations 3
DILUPBiCGStab:  Solving for H2O, Initial residual = 0.00298632, Final residual = 1.77728e-09, No Iterations 3
DILUPBiCGStab:  Solving for CH4, Initial residual = 0, Final residual = 0, No Iterations 0
DILUPBiCGStab:  Solving for CO2, Initial residual = 0.00298632, Final residual = 1.77728e-09, No Iterations 3
DILUPBiCGStab:  Solving for h, Initial residual = 0.0034517, Final residual = 1.63877e-09, No Iterations 3
min/max(T) = 300, 1044.98
GAMGPCG:  Solving for p_rgh, Initial residual = 0.0226373, Final residual = 3.74805e-07, No Iterations 4
diagonal:  Solving for rho, Initial residual = 0, Final residual = 0, No Iterations 0
time step continuity errors : sum local = 2.11651e-08, global = 1.97626e-10, cumulative = -2.25709e-07
GAMGPCG:  Solving for p_rgh, Initial residual = 0.00252006, Final residual = 8.53966e-07, No Iterations 3
diagonal:  Solving for rho, Initial residual = 0, Final residual = 0, No Iterations 0
time step continuity errors : sum local = 4.71386e-08, global = -1.21258e-09, cumulative = -2.26921e-07
DILUPBiCGStab:  Solving for omega, Initial residual = 9.99254e-05, Final residual = 9.00081e-10, No Iterations 2
DILUPBiCGStab:  Solving for k, Initial residual = 0.00630552, Final residual = 1.56583e-09, No Iterations 3

ExecutionTime = 2.46 s  ClockTime = 2 s

    Overall     = 0.00142173, 0.01
Time = 269

diagonal:  Solving for rho, Initial residual = 0, Final residual = 0, No Iterations 0

Execution time for mesh.update() = 0 s

DILUPBiCGStab:  Solving for Ux, Initial residual = 0.00514554, Final residual = 2.86229e-09, No Iterations 3
DILUPBiCGStab:  Solving for Uy, Initial residual = 0.00769741, Final residual = 4.23657e-09, No Iterations 3
DILUPBiCGStab:  Solving for O2, Initial residual = 0.00297484, Final residual = 1.75292e-09, No Iterations 3
DILUPBiCGStab:  Solving for H2O, Initial residual = 0.00297483, Final residual = 1.75287e-09, No Iterations 3
DILUPBiCGStab:  Solving for CH4, Initial residual = 0, Final residual = 0, No Iterations 0
DILUPBiCGStab:  Solving for CO2, Initial residual = 0.00297483, Final residual = 1.75287e-09, No Iterations 3
DILUPBiCGStab:  Solving for h, Initial residual = 0.00343371, Final residual = 1.67961e-09, No Iterations 3
min/max(T) = 300, 1044.98
GAMGPCG:  Solving for p_rgh, Initial residual = 0.0224471, Final residual = 4.47287e-07, No Iterations 4
diagonal:  Solving for rho, Initial residual = 0, Final residual = 0, No Iterations 0
time step continuity errors : sum local = 2.52331e-08, global = 2.16512e-09, cumulative = -2.24756e-07
GAMGPCG:  Solving for p_rgh, Initial residual = 0.00257706, Final residual = 7.31392e-07, No Iterations 3
diagonal:  Solving for rho, Initial residual = 0, Final residual = 0, No Iterations 0
time step continuity errors : sum local = 4.04525e-08, global = -1.00052e-09, cumulative = -2.25757e-07
DILUPBiCGStab:  Solving for omega, Initial residual = 9.9245e-05, Final residual = 1.04978e-09, No Iterations 2
DILUPBiCGStab:  Solving for k, Initial residual = 0.00630031, Final residual = 1.50331e-09, No Iterations 3

ExecutionTime = 2.57 s  ClockTime = 3 s

    Overall     = 0.00143444, 0.01
Time = 270

diagonal:  Solving for rho, Initial residual = 0, Final residual = 0, No Iterations 0

Execution time for mesh.update() = 0 s

DILUPBiCGStab:  Solving for Ux, Initial residual = 0.00512732, Final residual = 3.04823e-09, No Iterations 3
DILUPBiCGStab:  Solving for Uy, Initial residual = 0.00763296, Final residual = 4.23018e-09, No Iterations 3
GAMGPCG:  Solving for G, Initial residual = 0.163254, Final residual = 3.57426e-05, No Iterations 6
DILUPBiCGStab:  Solving for O2, Initial residual = 0.00297716, Final residual = 1.97544e-09, No Iterations 3
DILUPBiCGStab:  Solving for H2O, Initial residual = 0.00297716, Final residual = 1.97537e-09, No Iterations 3
DILUPBiCGStab:  Solving for CH4, Initial residual = 0, Final residual = 0, No Iterations 0
DILUPBiCGStab:  Solving for CO2, Initial residual = 0.00297716, Final residual = 1.97538e-09, No Iterations 3
DILUPBiCGStab:  Solving for h, Initial residual = 0.00344728, Final residual = 1.71709e-09, No Iterations 3
min/max(T) = 300, 1044.98
GAMGPCG:  Solving for p_rgh, Initial residual = 0.0231812, Final residual = 4.40788e-07, No Iterations 4
diagonal:  Solving for rho, Initial residual = 0, Final residual = 0, No Iterations 0
time step continuity errors : sum local = 2.4914e-08, global = 1.07643e-09, cumulative = -2.2468e-07
GAMGPCG:  Solving for p_rgh, Initial residual = 0.00251826, Final residual = 9.37335e-07, No Iterations 3
diagonal:  Solving for rho, Initial residual = 0, Final residual = 0, No Iterations 0
time step continuity errors : sum local = 5.12366e-08, global = 2.23632e-09, cumulative = -2.22444e-07
DILUPBiCGStab:  Solving for omega, Initial residual = 9.91397e-05, Final residual = 9.73622e-10, No Iterations 2
DILUPBiCGStab:  Solving for k, Initial residual = 0.00631857, Final residual = 1.58182e-09, No Iterations 3

ExecutionTime = 2.83 s  ClockTime = 3 s

    Overall     = 0.00144292, 0.01
Time = 271

diagonal:  Solving for rho, Initial residual = 0, Final residual = 0, No Iterations 0

Execution time for mesh.update() = 0 s

DILUPBiCGStab:  Solving for Ux, Initial residual = 0.00516018, Final residual = 2.8746e-09, No Iterations 3
DILUPBiCGStab:  Solving for Uy, Initial residual = 0.00767516, Final residual = 3.96859e-09, No Iterations 3
DILUPBiCGStab:  Solving for O2, Initial residual = 0.00296286, Final residual = 1.87049e-09, No Iterations 3
DILUPBiCGStab:  Solving for H2O, Initial residual = 0.00296286, Final residual = 1.87045e-09, No Iterations 3
DILUPBiCGStab:  Solving for CH4, Initial residual = 0, Final residual = 0, No Iterations 0
DILUPBiCGStab:  Solving for CO2, Initial residual = 0.00296286, Final residual = 1.87045e-09, No Iterations 3
DILUPBiCGStab:  Solving for h, Initial residual = 0.00342836, Final residual = 1.69167e-09, No Iterations 3
min/max(T) = 300, 1044.98
GAMGPCG:  Solving for p_rgh, Initial residual = 0.0230113, Final residual = 4.02968e-07, No Iterations 4
diagonal:  Solving for rho, Initial residual = 0, Final residual = 0, No Iterations 0
time step continuity errors : sum local = 2.26181e-08, global = 2.11718e-09, cumulative = -2.20327e-07
GAMGPCG:  Solving for p_rgh, Initial residual = 0.00259683, Final residual = 9.12872e-07, No Iterations 3
diagonal:  Solving for rho, Initial residual = 0, Final residual = 0, No Iterations 0
time step continuity errors : sum local = 4.95816e-08, global = 1.72794e-09, cumulative = -2.18599e-07
DILUPBiCGStab:  Solving for omega, Initial residual = 9.9122e-05, Final residual = 1.03526e-09, No Iterations 2
DILUPBiCGStab:  Solving for k, Initial residual = 0.00633423, Final residual = 1.52111e-09, No Iterations 3

ExecutionTime = 2.94 s  ClockTime = 3 s

    Overall     = 0.00145796, 0.01
Time = 272

diagonal:  Solving for rho, Initial residual = 0, Final residual = 0, No Iterations 0

Execution time for mesh.update() = 0 s

DILUPBiCGStab:  Solving for Ux, Initial residual = 0.00515058, Final residual = 2.83921e-09, No Iterations 3
DILUPBiCGStab:  Solving for Uy, Initial residual = 0.00758669, Final residual = 3.78533e-09, No Iterations 3
DILUPBiCGStab:  Solving for O2, Initial residual = 0.00297694, Final residual = 1.71732e-09, No Iterations 3
DILUPBiCGStab:  Solving for H2O, Initial residual = 0.00297694, Final residual = 1.71727e-09, No Iterations 3
DILUPBiCGStab:  Solving for CH4, Initial residual = 0, Final residual = 0, No Iterations 0
DILUPBiCGStab:  Solving for CO2, Initial residual = 0.00297694, Final residual = 1.71727e-09, No Iterations 3
DILUPBiCGStab:  Solving for h, Initial residual = 0.00345093, Final residual = 1.48948e-09, No Iterations 3
min/max(T) = 300, 1044.98
GAMGPCG:  Solving for p_rgh, Initial residual = 0.0234763, Final residual = 4.63942e-07, No Iterations 4
diagonal:  Solving for rho, Initial residual = 0, Final residual = 0, No Iterations 0
time step continuity errors : sum local = 2.62375e-08, global = 1.56416e-09, cumulative = -2.17035e-07
GAMGPCG:  Solving for p_rgh, Initial residual = 0.00251339, Final residual = 9.07771e-07, No Iterations 3
diagonal:  Solving for rho, Initial residual = 0, Final residual = 0, No Iterations 0
time step continuity errors : sum local = 4.85381e-08, global = 2.94145e-09, cumulative = -2.14093e-07
DILUPBiCGStab:  Solving for omega, Initial residual = 9.93988e-05, Final residual = 9.62855e-10, No Iterations 2
DILUPBiCGStab:  Solving for k, Initial residual = 0.0063308, Final residual = 1.51652e-09, No Iterations 3

ExecutionTime = 3.05 s  ClockTime = 3 s

    Overall     = 0.00146478, 0.01
Time = 273

diagonal:  Solving for rho, Initial residual = 0, Final residual = 0, No Iterations 0

Execution time for mesh.update() = 0 s

DILUPBiCGStab:  Solving for Ux, Initial residual = 0.00517845, Final residual = 2.71559e-09, No Iterations 3
DILUPBiCGStab:  Solving for Uy, Initial residual = 0.00764897, Final residual = 4.02859e-09, No Iterations 3
DILUPBiCGStab:  Solving for O2, Initial residual = 0.00296587, Final residual = 1.92456e-09, No Iterations 3
DILUPBiCGStab:  Solving for H2O, Initial residual = 0.00296587, Final residual = 1.92453e-09, No Iterations 3
DILUPBiCGStab:  Solving for CH4, Initial residual = 0, Final residual = 0, No Iterations 0
DILUPBiCGStab:  Solving for CO2, Initial residual = 0.00296586, Final residual = 1.92453e-09, No Iterations 3
DILUPBiCGStab:  Solving for h, Initial residual = 0.00343422, Final residual = 1.57413e-09, No Iterations 3
min/max(T) = 300, 1044.98
GAMGPCG:  Solving for p_rgh, Initial residual = 0.0229544, Final residual = 3.8222e-07, No Iterations 4
diagonal:  Solving for rho, Initial residual = 0, Final residual = 0, No Iterations 0
time step continuity errors : sum local = 2.1133e-08, global = 2.87474e-10, cumulative = -2.13806e-07
GAMGPCG:  Solving for p_rgh, Initial residual = 0.00262051, Final residual = 9.164e-08, No Iterations 4
diagonal:  Solving for rho, Initial residual = 0, Final residual = 0, No Iterations 0
time step continuity errors : sum local = 5.05733e-09, global = 9.33335e-10, cumulative = -2.12872e-07
DILUPBiCGStab:  Solving for omega, Initial residual = 9.80472e-05, Final residual = 9.95756e-09, No Iterations 2
DILUPBiCGStab:  Solving for k, Initial residual = 0.00632719, Final residual = 1.55664e-09, No Iterations 3

ExecutionTime = 3.17 s  ClockTime = 3 s

    Overall     = 0.00148264, 0.01
Time = 274

diagonal:  Solving for rho, Initial residual = 0, Final residual = 0, No Iterations 0

Execution time for mesh.update() = 0 s

DILUPBiCGStab:  Solving for Ux, Initial residual = 0.00518791, Final residual = 2.67036e-09, No Iterations 3
DILUPBiCGStab:  Solving for Uy, Initial residual = 0.00758359, Final residual = 3.44418e-09, No Iterations 3
DILUPBiCGStab:  Solving for O2, Initial residual = 0.00297738, Final residual = 1.65641e-09, No Iterations 3
DILUPBiCGStab:  Solving for H2O, Initial residual = 0.00297738, Final residual = 1.65639e-09, No Iterations 3
DILUPBiCGStab:  Solving for CH4, Initial residual = 0, Final residual = 0, No Iterations 0
DILUPBiCGStab:  Solving for CO2, Initial residual = 0.00297738, Final residual = 1.65639e-09, No Iterations 3
DILUPBiCGStab:  Solving for h, Initial residual = 0.00345829, Final residual = 1.41437e-09, No Iterations 3
min/max(T) = 300, 1044.98
GAMGPCG:  Solving for p_rgh, Initial residual = 0.0234855, Final residual = 4.2375e-07, No Iterations 4
diagonal:  Solving for rho, Initial residual = 0, Final residual = 0, No Iterations 0
time step continuity errors : sum local = 2.36313e-08, global = 1.53179e-10, cumulative = -2.12719e-07
GAMGPCG:  Solving for p_rgh, Initial residual = 0.00252064, Final residual = 1.17778e-07, No Iterations 4
diagonal:  Solving for rho, Initial residual = 0, Final residual = 0, No Iterations 0
time step continuity errors : sum local = 6.32257e-09, global = 6.08415e-10, cumulative = -2.12111e-07
DILUPBiCGStab:  Solving for omega, Initial residual = 9.73118e-05, Final residual = 9.06335e-10, No Iterations 2
DILUPBiCGStab:  Solving for k, Initial residual = 0.00634074, Final residual = 1.60987e-09, No Iterations 3

ExecutionTime = 3.29 s  ClockTime = 3 s

    Overall     = 0.00148903, 0.01
Time = 275

diagonal:  Solving for rho, Initial residual = 0, Final residual = 0, No Iterations 0

Execution time for mesh.update() = 0 s

DILUPBiCGStab:  Solving for Ux, Initial residual = 0.00519552, Final residual = 2.60777e-09, No Iterations 3
DILUPBiCGStab:  Solving for Uy, Initial residual = 0.00760758, Final residual = 3.84307e-09, No Iterations 3
DILUPBiCGStab:  Solving for O2, Initial residual = 0.00296622, Final residual = 1.68719e-09, No Iterations 3
DILUPBiCGStab:  Solving for H2O, Initial residual = 0.00296621, Final residual = 1.68716e-09, No Iterations 3
DILUPBiCGStab:  Solving for CH4, Initial residual = 0, Final residual = 0, No Iterations 0
DILUPBiCGStab:  Solving for CO2, Initial residual = 0.00296621, Final residual = 1.68716e-09, No Iterations 3
DILUPBiCGStab:  Solving for h, Initial residual = 0.00344385, Final residual = 1.49739e-09, No Iterations 3
min/max(T) = 300, 1044.98
GAMGPCG:  Solving for p_rgh, Initial residual = 0.0233216, Final residual = 4.34745e-07, No Iterations 4
diagonal:  Solving for rho, Initial residual = 0, Final residual = 0, No Iterations 0
time step continuity errors : sum local = 2.37683e-08, global = -6.50699e-10, cumulative = -2.12761e-07
GAMGPCG:  Solving for p_rgh, Initial residual = 0.00260982, Final residual = 1.42988e-07, No Iterations 4
diagonal:  Solving for rho, Initial residual = 0, Final residual = 0, No Iterations 0
time step continuity errors : sum local = 7.79883e-09, global = 5.33932e-10, cumulative = -2.12228e-07
DILUPBiCGStab:  Solving for omega, Initial residual = 9.95608e-05, Final residual = 9.3861e-10, No Iterations 2
DILUPBiCGStab:  Solving for k, Initial residual = 0.00635069, Final residual = 1.56715e-09, No Iterations 3

ExecutionTime = 3.4 s  ClockTime = 3 s

    Overall     = 0.00150777, 0.01
Time = 276

diagonal:  Solving for rho, Initial residual = 0, Final residual = 0, No Iterations 0

Execution time for mesh.update() = 0 s

DILUPBiCGStab:  Solving for Ux, Initial residual = 0.00519845, Final residual = 2.74003e-09, No Iterations 3
DILUPBiCGStab:  Solving for Uy, Initial residual = 0.00753959, Final residual = 3.48183e-09, No Iterations 3
DILUPBiCGStab:  Solving for O2, Initial residual = 0.00297471, Final residual = 1.36698e-09, No Iterations 3
DILUPBiCGStab:  Solving for H2O, Initial residual = 0.00297471, Final residual = 1.36697e-09, No Iterations 3
DILUPBiCGStab:  Solving for CH4, Initial residual = 0, Final residual = 0, No Iterations 0
DILUPBiCGStab:  Solving for CO2, Initial residual = 0.00297471, Final residual = 1.36697e-09, No Iterations 3
DILUPBiCGStab:  Solving for h, Initial residual = 0.00346641, Final residual = 1.29025e-09, No Iterations 3
min/max(T) = 299.998, 1044.98
GAMGPCG:  Solving for p_rgh, Initial residual = 0.0243763, Final residual = 4.62729e-07, No Iterations 4
diagonal:  Solving for rho, Initial residual = 0, Final residual = 0, No Iterations 0
time step continuity errors : sum local = 2.54973e-08, global = 1.79952e-09, cumulative = -2.10428e-07
GAMGPCG:  Solving for p_rgh, Initial residual = 0.00256542, Final residual = 1.45842e-07, No Iterations 4
diagonal:  Solving for rho, Initial residual = 0, Final residual = 0, No Iterations 0
time step continuity errors : sum local = 7.81168e-09, global = 2.52708e-10, cumulative = -2.10175e-07
DILUPBiCGStab:  Solving for omega, Initial residual = 9.86216e-05, Final residual = 7.96798e-10, No Iterations 2
DILUPBiCGStab:  Solving for k, Initial residual = 0.00634495, Final residual = 1.96287e-09, No Iterations 3

ExecutionTime = 3.52 s  ClockTime = 3 s

    Overall     = 0.00151364, 0.01
Time = 277

diagonal:  Solving for rho, Initial residual = 0, Final residual = 0, No Iterations 0

Execution time for mesh.update() = 0 s

DILUPBiCGStab:  Solving for Ux, Initial residual = 0.00519694, Final residual = 2.42474e-09, No Iterations 3
DILUPBiCGStab:  Solving for Uy, Initial residual = 0.00756986, Final residual = 3.8276e-09, No Iterations 3
DILUPBiCGStab:  Solving for O2, Initial residual = 0.0029659, Final residual = 1.45259e-09, No Iterations 3
DILUPBiCGStab:  Solving for H2O, Initial residual = 0.00296591, Final residual = 1.45257e-09, No Iterations 3
DILUPBiCGStab:  Solving for CH4, Initial residual = 0, Final residual = 0, No Iterations 0
DILUPBiCGStab:  Solving for CO2, Initial residual = 0.00296591, Final residual = 1.45257e-09, No Iterations 3
DILUPBiCGStab:  Solving for h, Initial residual = 0.00345257, Final residual = 1.36415e-09, No Iterations 3
min/max(T) = 299.994, 1044.98
GAMGPCG:  Solving for p_rgh, Initial residual = 0.0239463, Final residual = 3.94763e-07, No Iterations 4
diagonal:  Solving for rho, Initial residual = 0, Final residual = 0, No Iterations 0
time step continuity errors : sum local = 2.15401e-08, global = -7.74434e-10, cumulative = -2.1095e-07
GAMGPCG:  Solving for p_rgh, Initial residual = 0.00267274, Final residual = 1.50356e-07, No Iterations 4
diagonal:  Solving for rho, Initial residual = 0, Final residual = 0, No Iterations 0
time step continuity errors : sum local = 8.28872e-09, global = 5.14078e-10, cumulative = -2.10436e-07
DILUPBiCGStab:  Solving for omega, Initial residual = 9.87563e-05, Final residual = 7.39587e-10, No Iterations 2
DILUPBiCGStab:  Solving for k, Initial residual = 0.00634888, Final residual = 2.26698e-09, No Iterations 3

ExecutionTime = 3.63 s  ClockTime = 4 s

    Overall     = 0.00153387, 0.01
Time = 278

diagonal:  Solving for rho, Initial residual = 0, Final residual = 0, No Iterations 0

Execution time for mesh.update() = 0 s

DILUPBiCGStab:  Solving for Ux, Initial residual = 0.00521272, Final residual = 2.59682e-09, No Iterations 3
DILUPBiCGStab:  Solving for Uy, Initial residual = 0.00754246, Final residual = 3.81976e-09, No Iterations 3
DILUPBiCGStab:  Solving for O2, Initial residual = 0.00296402, Final residual = 1.34833e-09, No Iterations 3
DILUPBiCGStab:  Solving for H2O, Initial residual = 0.00296403, Final residual = 1.34832e-09, No Iterations 3
DILUPBiCGStab:  Solving for CH4, Initial residual = 0, Final residual = 0, No Iterations 0
DILUPBiCGStab:  Solving for CO2, Initial residual = 0.00296403, Final residual = 1.34832e-09, No Iterations 3
DILUPBiCGStab:  Solving for h, Initial residual = 0.00345459, Final residual = 1.27247e-09, No Iterations 3
min/max(T) = 299.985, 1044.98
GAMGPCG:  Solving for p_rgh, Initial residual = 0.0240017, Final residual = 4.35021e-07, No Iterations 4
diagonal:  Solving for rho, Initial residual = 0, Final residual = 0, No Iterations 0
time step continuity errors : sum local = 2.3655e-08, global = 1.48117e-09, cumulative = -2.08955e-07
GAMGPCG:  Solving for p_rgh, Initial residual = 0.00257674, Final residual = 1.14554e-07, No Iterations 4
diagonal:  Solving for rho, Initial residual = 0, Final residual = 0, No Iterations 0
time step continuity errors : sum local = 6.20308e-09, global = 8.82565e-10, cumulative = -2.08072e-07
DILUPBiCGStab:  Solving for omega, Initial residual = 9.92912e-05, Final residual = 7.32564e-10, No Iterations 2
DILUPBiCGStab:  Solving for k, Initial residual = 0.00636716, Final residual = 3.85907e-09, No Iterations 3

ExecutionTime = 3.75 s  ClockTime = 4 s

    Overall     = 0.00154091, 0.01
Time = 279

diagonal:  Solving for rho, Initial residual = 0, Final residual = 0, No Iterations 0

Execution time for mesh.update() = 0 s

DILUPBiCGStab:  Solving for Ux, Initial residual = 0.00521128, Final residual = 2.4148e-09, No Iterations 3
DILUPBiCGStab:  Solving for Uy, Initial residual = 0.007551, Final residual = 3.67933e-09, No Iterations 3
DILUPBiCGStab:  Solving for O2, Initial residual = 0.00295278, Final residual = 1.43291e-09, No Iterations 3
DILUPBiCGStab:  Solving for H2O, Initial residual = 0.00295279, Final residual = 1.43292e-09, No Iterations 3
DILUPBiCGStab:  Solving for CH4, Initial residual = 0, Final residual = 0, No Iterations 0
DILUPBiCGStab:  Solving for CO2, Initial residual = 0.00295279, Final residual = 1.43292e-09, No Iterations 3
DILUPBiCGStab:  Solving for h, Initial residual = 0.00344251, Final residual = 1.31633e-09, No Iterations 3
min/max(T) = 299.981, 1044.98
GAMGPCG:  Solving for p_rgh, Initial residual = 0.0236219, Final residual = 4.03589e-07, No Iterations 4
diagonal:  Solving for rho, Initial residual = 0, Final residual = 0, No Iterations 0
time step continuity errors : sum local = 2.19437e-08, global = -1.22038e-09, cumulative = -2.09292e-07
GAMGPCG:  Solving for p_rgh, Initial residual = 0.00258008, Final residual = 1.59436e-07, No Iterations 4
diagonal:  Solving for rho, Initial residual = 0, Final residual = 0, No Iterations 0
time step continuity errors : sum local = 8.83176e-09, global = 5.64211e-10, cumulative = -2.08728e-07
DILUPBiCGStab:  Solving for omega, Initial residual = 9.84015e-05, Final residual = 7.32323e-10, No Iterations 2
DILUPBiCGStab:  Solving for k, Initial residual = 0.00637909, Final residual = 4.22509e-09, No Iterations 3

ExecutionTime = 3.86 s  ClockTime = 4 s

    Overall     = 0.00156296, 0.01
Time = 280

diagonal:  Solving for rho, Initial residual = 0, Final residual = 0, No Iterations 0

Execution time for mesh.update() = 0 s

DILUPBiCGStab:  Solving for Ux, Initial residual = 0.005242, Final residual = 2.30126e-09, No Iterations 3
DILUPBiCGStab:  Solving for Uy, Initial residual = 0.0075222, Final residual = 3.47827e-09, No Iterations 3
GAMGPCG:  Solving for G, Initial residual = 0.191999, Final residual = 6.60563e-05, No Iterations 6
DILUPBiCGStab:  Solving for O2, Initial residual = 0.0029447, Final residual = 1.45184e-09, No Iterations 3
DILUPBiCGStab:  Solving for H2O, Initial residual = 0.00294472, Final residual = 1.45185e-09, No Iterations 3
DILUPBiCGStab:  Solving for CH4, Initial residual = 0, Final residual = 0, No Iterations 0
DILUPBiCGStab:  Solving for CO2, Initial residual = 0.00294472, Final residual = 1.45185e-09, No Iterations 3
DILUPBiCGStab:  Solving for h, Initial residual = 0.00344031, Final residual = 1.32043e-09, No Iterations 3
min/max(T) = 299.966, 1044.98
GAMGPCG:  Solving for p_rgh, Initial residual = 0.0237844, Final residual = 4.35501e-07, No Iterations 4
diagonal:  Solving for rho, Initial residual = 0, Final residual = 0, No Iterations 0
time step continuity errors : sum local = 2.41379e-08, global = 2.48227e-09, cumulative = -2.06246e-07
GAMGPCG:  Solving for p_rgh, Initial residual = 0.00255725, Final residual = 9.87633e-07, No Iterations 3
diagonal:  Solving for rho, Initial residual = 0, Final residual = 0, No Iterations 0
time step continuity errors : sum local = 5.29412e-08, global = -2.95522e-10, cumulative = -2.06541e-07
DILUPBiCGStab:  Solving for omega, Initial residual = 9.8238e-05, Final residual = 6.99338e-10, No Iterations 2
DILUPBiCGStab:  Solving for k, Initial residual = 0.00639659, Final residual = 4.46598e-09, No Iterations 3

ExecutionTime = 4.12 s  ClockTime = 4 s

    Overall     = 0.00157139, 0.01
Time = 281

diagonal:  Solving for rho, Initial residual = 0, Final residual = 0, No Iterations 0

Execution time for mesh.update() = 0 s

DILUPBiCGStab:  Solving for Ux, Initial residual = 0.00525563, Final residual = 2.21755e-09, No Iterations 3
DILUPBiCGStab:  Solving for Uy, Initial residual = 0.00752275, Final residual = 3.46336e-09, No Iterations 3
DILUPBiCGStab:  Solving for O2, Initial residual = 0.00293637, Final residual = 1.56401e-09, No Iterations 3
DILUPBiCGStab:  Solving for H2O, Initial residual = 0.0029364, Final residual = 1.56407e-09, No Iterations 3
DILUPBiCGStab:  Solving for CH4, Initial residual = 0, Final residual = 0, No Iterations 0
DILUPBiCGStab:  Solving for CO2, Initial residual = 0.0029364, Final residual = 1.56407e-09, No Iterations 3
DILUPBiCGStab:  Solving for h, Initial residual = 0.00343085, Final residual = 1.37465e-09, No Iterations 3
min/max(T) = 299.966, 1044.98
GAMGPCG:  Solving for p_rgh, Initial residual = 0.0238946, Final residual = 4.52656e-07, No Iterations 4
diagonal:  Solving for rho, Initial residual = 0, Final residual = 0, No Iterations 0
time step continuity errors : sum local = 2.46426e-08, global = -1.50621e-10, cumulative = -2.06692e-07
GAMGPCG:  Solving for p_rgh, Initial residual = 0.00256952, Final residual = 1.1043e-07, No Iterations 4
diagonal:  Solving for rho, Initial residual = 0, Final residual = 0, No Iterations 0
time step continuity errors : sum local = 6.02721e-09, global = 2.69437e-10, cumulative = -2.06423e-07
DILUPBiCGStab:  Solving for omega, Initial residual = 9.83605e-05, Final residual = 6.80774e-10, No Iterations 2
DILUPBiCGStab:  Solving for k, Initial residual = 0.00640453, Final residual = 4.10376e-09, No Iterations 3

ExecutionTime = 4.23 s  ClockTime = 4 s

    Overall     = 0.00159526, 0.01
Time = 282

diagonal:  Solving for rho, Initial residual = 0, Final residual = 0, No Iterations 0

Execution time for mesh.update() = 0 s

DILUPBiCGStab:  Solving for Ux, Initial residual = 0.00530918, Final residual = 2.42367e-09, No Iterations 3
DILUPBiCGStab:  Solving for Uy, Initial residual = 0.00752429, Final residual = 3.3202e-09, No Iterations 3
DILUPBiCGStab:  Solving for O2, Initial residual = 0.00292524, Final residual = 1.57557e-09, No Iterations 3
DILUPBiCGStab:  Solving for H2O, Initial residual = 0.00292527, Final residual = 1.57561e-09, No Iterations 3
DILUPBiCGStab:  Solving for CH4, Initial residual = 0, Final residual = 0, No Iterations 0
DILUPBiCGStab:  Solving for CO2, Initial residual = 0.00292527, Final residual = 1.57561e-09, No Iterations 3
DILUPBiCGStab:  Solving for h, Initial residual = 0.0034208, Final residual = 1.44162e-09, No Iterations 3
min/max(T) = 299.942, 1044.98
GAMGPCG:  Solving for p_rgh, Initial residual = 0.0241213, Final residual = 6.34859e-07, No Iterations 4
diagonal:  Solving for rho, Initial residual = 0, Final residual = 0, No Iterations 0
time step continuity errors : sum local = 3.59188e-08, global = 8.45178e-09, cumulative = -1.97971e-07
GAMGPCG:  Solving for p_rgh, Initial residual = 0.002633, Final residual = 9.07624e-07, No Iterations 3
diagonal:  Solving for rho, Initial residual = 0, Final residual = 0, No Iterations 0
time step continuity errors : sum local = 4.77976e-08, global = 3.88823e-09, cumulative = -1.94083e-07
DILUPBiCGStab:  Solving for omega, Initial residual = 9.90771e-05, Final residual = 9.81461e-09, No Iterations 2
DILUPBiCGStab:  Solving for k, Initial residual = 0.00642352, Final residual = 3.7545e-09, No Iterations 3

ExecutionTime = 4.34 s  ClockTime = 4 s

    Overall     = 0.00160693, 0.01
Time = 283

diagonal:  Solving for rho, Initial residual = 0, Final residual = 0, No Iterations 0

Execution time for mesh.update() = 0 s

DILUPBiCGStab:  Solving for Ux, Initial residual = 0.00529436, Final residual = 2.34459e-09, No Iterations 3
DILUPBiCGStab:  Solving for Uy, Initial residual = 0.00745793, Final residual = 3.33897e-09, No Iterations 3
DILUPBiCGStab:  Solving for O2, Initial residual = 0.00291865, Final residual = 1.67532e-09, No Iterations 3
DILUPBiCGStab:  Solving for H2O, Initial residual = 0.00291868, Final residual = 1.67548e-09, No Iterations 3
DILUPBiCGStab:  Solving for CH4, Initial residual = 0, Final residual = 0, No Iterations 0
DILUPBiCGStab:  Solving for CO2, Initial residual = 0.00291868, Final residual = 1.67548e-09, No Iterations 3
DILUPBiCGStab:  Solving for h, Initial residual = 0.00341611, Final residual = 1.5653e-09, No Iterations 3
min/max(T) = 299.943, 1044.98
GAMGPCG:  Solving for p_rgh, Initial residual = 0.0235143, Final residual = 4.1958e-07, No Iterations 4
diagonal:  Solving for rho, Initial residual = 0, Final residual = 0, No Iterations 0
time step continuity errors : sum local = 2.32997e-08, global = 8.2391e-11, cumulative = -1.94e-07
GAMGPCG:  Solving for p_rgh, Initial residual = 0.00255479, Final residual = 1.37639e-07, No Iterations 4
diagonal:  Solving for rho, Initial residual = 0, Final residual = 0, No Iterations 0
time step continuity errors : sum local = 7.39431e-09, global = 2.86754e-10, cumulative = -1.93713e-07
DILUPBiCGStab:  Solving for omega, Initial residual = 9.84154e-05, Final residual = 9.89184e-09, No Iterations 2
DILUPBiCGStab:  Solving for k, Initial residual = 0.00643538, Final residual = 2.05658e-09, No Iterations 3

ExecutionTime = 4.46 s  ClockTime = 4 s

    Overall     = 0.00163287, 0.01
Time = 284

diagonal:  Solving for rho, Initial residual = 0, Final residual = 0, No Iterations 0

Execution time for mesh.update() = 0 s

DILUPBiCGStab:  Solving for Ux, Initial residual = 0.00529834, Final residual = 2.43862e-09, No Iterations 3
DILUPBiCGStab:  Solving for Uy, Initial residual = 0.00745112, Final residual = 3.38724e-09, No Iterations 3
DILUPBiCGStab:  Solving for O2, Initial residual = 0.00291027, Final residual = 1.73536e-09, No Iterations 3
DILUPBiCGStab:  Solving for H2O, Initial residual = 0.0029103, Final residual = 1.73547e-09, No Iterations 3
DILUPBiCGStab:  Solving for CH4, Initial residual = 0, Final residual = 0, No Iterations 0
DILUPBiCGStab:  Solving for CO2, Initial residual = 0.0029103, Final residual = 1.73547e-09, No Iterations 3
DILUPBiCGStab:  Solving for h, Initial residual = 0.00341735, Final residual = 1.68315e-09, No Iterations 3
min/max(T) = 299.91, 1044.98
GAMGPCG:  Solving for p_rgh, Initial residual = 0.0244194, Final residual = 5.64939e-07, No Iterations 4
diagonal:  Solving for rho, Initial residual = 0, Final residual = 0, No Iterations 0
time step continuity errors : sum local = 3.21346e-08, global = 6.13604e-09, cumulative = -1.87577e-07
GAMGPCG:  Solving for p_rgh, Initial residual = 0.00267113, Final residual = 1.08476e-07, No Iterations 4
diagonal:  Solving for rho, Initial residual = 0, Final residual = 0, No Iterations 0
time step continuity errors : sum local = 5.85417e-09, global = 2.52462e-10, cumulative = -1.87325e-07
DILUPBiCGStab:  Solving for omega, Initial residual = 9.88843e-05, Final residual = 9.68876e-09, No Iterations 2
DILUPBiCGStab:  Solving for k, Initial residual = 0.00644234, Final residual = 1.97527e-09, No Iterations 3

ExecutionTime = 4.57 s  ClockTime = 5 s

    Overall     = 0.00164875, 0.01
Time = 285

diagonal:  Solving for rho, Initial residual = 0, Final residual = 0, No Iterations 0

Execution time for mesh.update() = 0 s

DILUPBiCGStab:  Solving for Ux, Initial residual = 0.00532863, Final residual = 2.38581e-09, No Iterations 3
DILUPBiCGStab:  Solving for Uy, Initial residual = 0.00742446, Final residual = 3.42065e-09, No Iterations 3
DILUPBiCGStab:  Solving for O2, Initial residual = 0.0028975, Final residual = 1.79656e-09, No Iterations 3
DILUPBiCGStab:  Solving for H2O, Initial residual = 0.00289755, Final residual = 1.79684e-09, No Iterations 3
DILUPBiCGStab:  Solving for CH4, Initial residual = 0, Final residual = 0, No Iterations 0
DILUPBiCGStab:  Solving for CO2, Initial residual = 0.00289755, Final residual = 1.79684e-09, No Iterations 3
DILUPBiCGStab:  Solving for h, Initial residual = 0.00339741, Final residual = 1.85816e-09, No Iterations 3
min/max(T) = 299.915, 1044.98
GAMGPCG:  Solving for p_rgh, Initial residual = 0.0233728, Final residual = 5.71112e-07, No Iterations 4
diagonal:  Solving for rho, Initial residual = 0, Final residual = 0, No Iterations 0
time step continuity errors : sum local = 3.17793e-08, global = 3.94796e-10, cumulative = -1.8693e-07
GAMGPCG:  Solving for p_rgh, Initial residual = 0.00258745, Final residual = 9.09291e-07, No Iterations 3
diagonal:  Solving for rho, Initial residual = 0, Final residual = 0, No Iterations 0
time step continuity errors : sum local = 4.84458e-08, global = -1.3763e-09, cumulative = -1.88306e-07
DILUPBiCGStab:  Solving for omega, Initial residual = 9.85678e-05, Final residual = 9.8138e-09, No Iterations 2
DILUPBiCGStab:  Solving for k, Initial residual = 0.00645398, Final residual = 1.58801e-09, No Iterations 3

ExecutionTime = 4.68 s  ClockTime = 5 s

    Overall     = 0.00167538, 0.01
Time = 286

diagonal:  Solving for rho, Initial residual = 0, Final residual = 0, No Iterations 0

Execution time for mesh.update() = 0 s

DILUPBiCGStab:  Solving for Ux, Initial residual = 0.00529196, Final residual = 2.39409e-09, No Iterations 3
DILUPBiCGStab:  Solving for Uy, Initial residual = 0.00737413, Final residual = 3.74928e-09, No Iterations 3
DILUPBiCGStab:  Solving for O2, Initial residual = 0.00288407, Final residual = 1.84983e-09, No Iterations 3
DILUPBiCGStab:  Solving for H2O, Initial residual = 0.00288413, Final residual = 1.84998e-09, No Iterations 3
DILUPBiCGStab:  Solving for CH4, Initial residual = 0, Final residual = 0, No Iterations 0
DILUPBiCGStab:  Solving for CO2, Initial residual = 0.00288413, Final residual = 1.84998e-09, No Iterations 3
DILUPBiCGStab:  Solving for h, Initial residual = 0.00338055, Final residual = 1.82427e-09, No Iterations 3
min/max(T) = 299.864, 1044.98
GAMGPCG:  Solving for p_rgh, Initial residual = 0.0231171, Final residual = 6.75564e-07, No Iterations 4
diagonal:  Solving for rho, Initial residual = 0, Final residual = 0, No Iterations 0
time step continuity errors : sum local = 3.7924e-08, global = 4.59733e-09, cumulative = -1.83709e-07
GAMGPCG:  Solving for p_rgh, Initial residual = 0.00270135, Final residual = 7.28647e-07, No Iterations 3
diagonal:  Solving for rho, Initial residual = 0, Final residual = 0, No Iterations 0
time step continuity errors : sum local = 4.03372e-08, global = -5.40417e-09, cumulative = -1.89113e-07
DILUPBiCGStab:  Solving for omega, Initial residual = 9.85924e-05, Final residual = 7.58344e-10, No Iterations 2
DILUPBiCGStab:  Solving for k, Initial residual = 0.00646223, Final residual = 2.00848e-09, No Iterations 3

ExecutionTime = 4.8 s  ClockTime = 5 s

    Overall     = 0.00169323, 0.01
Time = 287

diagonal:  Solving for rho, Initial residual = 0, Final residual = 0, No Iterations 0

Execution time for mesh.update() = 0 s

DILUPBiCGStab:  Solving for Ux, Initial residual = 0.00529209, Final residual = 2.26828e-09, No Iterations 3
DILUPBiCGStab:  Solving for Uy, Initial residual = 0.00732166, Final residual = 3.20964e-09, No Iterations 3
DILUPBiCGStab:  Solving for O2, Initial residual = 0.00286317, Final residual = 1.91308e-09, No Iterations 3
DILUPBiCGStab:  Solving for H2O, Initial residual = 0.00286325, Final residual = 1.91353e-09, No Iterations 3
DILUPBiCGStab:  Solving for CH4, Initial residual = 0, Final residual = 0, No Iterations 0
DILUPBiCGStab:  Solving for CO2, Initial residual = 0.00286325, Final residual = 1.91353e-09, No Iterations 3
DILUPBiCGStab:  Solving for h, Initial residual = 0.0033617, Final residual = 1.86034e-09, No Iterations 3
min/max(T) = 299.872, 1044.98
GAMGPCG:  Solving for p_rgh, Initial residual = 0.02278, Final residual = 7.70585e-07, No Iterations 4
diagonal:  Solving for rho, Initial residual = 0, Final residual = 0, No Iterations 0
time step continuity errors : sum local = 4.20613e-08, global = 2.01336e-09, cumulative = -1.871e-07
GAMGPCG:  Solving for p_rgh, Initial residual = 0.00251218, Final residual = 1.31074e-07, No Iterations 4
diagonal:  Solving for rho, Initial residual = 0, Final residual = 0, No Iterations 0
time step continuity errors : sum local = 7.05182e-09, global = 1.06346e-10, cumulative = -1.86994e-07
DILUPBiCGStab:  Solving for omega, Initial residual = 9.89432e-05, Final residual = 8.55663e-10, No Iterations 2
DILUPBiCGStab:  Solving for k, Initial residual = 0.00646774, Final residual = 1.93628e-09, No Iterations 3

ExecutionTime = 4.91 s  ClockTime = 5 s

    Overall     = 0.0017204, 0.01
Time = 288

diagonal:  Solving for rho, Initial residual = 0, Final residual = 0, No Iterations 0

Execution time for mesh.update() = 0 s

DILUPBiCGStab:  Solving for Ux, Initial residual = 0.00526532, Final residual = 2.12549e-09, No Iterations 3
DILUPBiCGStab:  Solving for Uy, Initial residual = 0.007265, Final residual = 3.59575e-09, No Iterations 3
DILUPBiCGStab:  Solving for O2, Initial residual = 0.00284533, Final residual = 1.85239e-09, No Iterations 3
DILUPBiCGStab:  Solving for H2O, Initial residual = 0.00284542, Final residual = 1.8526e-09, No Iterations 3
DILUPBiCGStab:  Solving for CH4, Initial residual = 0, Final residual = 0, No Iterations 0
DILUPBiCGStab:  Solving for CO2, Initial residual = 0.00284542, Final residual = 1.8526e-09, No Iterations 3
DILUPBiCGStab:  Solving for h, Initial residual = 0.00334802, Final residual = 1.68036e-09, No Iterations 3
min/max(T) = 299.806, 1044.98
GAMGPCG:  Solving for p_rgh, Initial residual = 0.0227275, Final residual = 6.84321e-07, No Iterations 4
diagonal:  Solving for rho, Initial residual = 0, Final residual = 0, No Iterations 0
time step continuity errors : sum local = 3.80049e-08, global = 4.13429e-10, cumulative = -1.8658e-07
GAMGPCG:  Solving for p_rgh, Initial residual = 0.00260034, Final residual = 6.23121e-07, No Iterations 3
diagonal:  Solving for rho, Initial residual = 0, Final residual = 0, No Iterations 0
time step continuity errors : sum local = 3.44841e-08, global = -4.57722e-09, cumulative = -1.91157e-07
DILUPBiCGStab:  Solving for omega, Initial residual = 9.85608e-05, Final residual = 8.4319e-10, No Iterations 2
DILUPBiCGStab:  Solving for k, Initial residual = 0.00648113, Final residual = 2.59494e-09, No Iterations 3

ExecutionTime = 5.02 s  ClockTime = 5 s

    Overall     = 0.00174119, 0.01
Time = 289

diagonal:  Solving for rho, Initial residual = 0, Final residual = 0, No Iterations 0

Execution time for mesh.update() = 0 s

DILUPBiCGStab:  Solving for Ux, Initial residual = 0.00527404, Final residual = 2.25064e-09, No Iterations 3
DILUPBiCGStab:  Solving for Uy, Initial residual = 0.00725483, Final residual = 3.35113e-09, No Iterations 3
DILUPBiCGStab:  Solving for O2, Initial residual = 0.00283686, Final residual = 2.034e-09, No Iterations 3
DILUPBiCGStab:  Solving for H2O, Initial residual = 0.00283697, Final residual = 2.03451e-09, No Iterations 3
DILUPBiCGStab:  Solving for CH4, Initial residual = 0, Final residual = 0, No Iterations 0
DILUPBiCGStab:  Solving for CO2, Initial residual = 0.00283697, Final residual = 2.03451e-09, No Iterations 3
DILUPBiCGStab:  Solving for h, Initial residual = 0.00333713, Final residual = 1.904e-09, No Iterations 3
min/max(T) = 299.793, 1044.98
GAMGPCG:  Solving for p_rgh, Initial residual = 0.0224949, Final residual = 5.13545e-07, No Iterations 4
diagonal:  Solving for rho, Initial residual = 0, Final residual = 0, No Iterations 0
time step continuity errors : sum local = 2.80905e-08, global = -4.35617e-09, cumulative = -1.95513e-07
GAMGPCG:  Solving for p_rgh, Initial residual = 0.00257686, Final residual = 8.2576e-07, No Iterations 3
diagonal:  Solving for rho, Initial residual = 0, Final residual = 0, No Iterations 0
time step continuity errors : sum local = 4.50705e-08, global = -3.85104e-09, cumulative = -1.99365e-07
DILUPBiCGStab:  Solving for omega, Initial residual = 9.86934e-05, Final residual = 9.34182e-10, No Iterations 2
DILUPBiCGStab:  Solving for k, Initial residual = 0.00649962, Final residual = 2.22917e-09, No Iterations 3

ExecutionTime = 5.14 s  ClockTime = 5 s

    Overall     = 0.0017695, 0.01
Time = 290

diagonal:  Solving for rho, Initial residual = 0, Final residual = 0, No Iterations 0

Execution time for mesh.update() = 0 s

DILUPBiCGStab:  Solving for Ux, Initial residual = 0.00525898, Final residual = 2.29004e-09, No Iterations 3
DILUPBiCGStab:  Solving for Uy, Initial residual = 0.00722529, Final residual = 3.67242e-09, No Iterations 3
GAMGPCG:  Solving for G, Initial residual = 0.231986, Final residual = 4.93463e-05, No Iterations 6
DILUPBiCGStab:  Solving for O2, Initial residual = 0.00281292, Final residual = 2.02483e-09, No Iterations 3
DILUPBiCGStab:  Solving for H2O, Initial residual = 0.00281305, Final residual = 2.02506e-09, No Iterations 3
DILUPBiCGStab:  Solving for CH4, Initial residual = 0, Final residual = 0, No Iterations 0
DILUPBiCGStab:  Solving for CO2, Initial residual = 0.00281305, Final residual = 2.02506e-09, No Iterations 3
DILUPBiCGStab:  Solving for h, Initial residual = 0.00331546, Final residual = 1.85567e-09, No Iterations 3
min/max(T) = 299.74, 1044.98
GAMGPCG:  Solving for p_rgh, Initial residual = 0.0219619, Final residual = 5.23796e-07, No Iterations 4
diagonal:  Solving for rho, Initial residual = 0, Final residual = 0, No Iterations 0
time step continuity errors : sum local = 2.86381e-08, global = -2.21034e-09, cumulative = -2.01575e-07
GAMGPCG:  Solving for p_rgh, Initial residual = 0.00259694, Final residual = 6.45631e-07, No Iterations 3
diagonal:  Solving for rho, Initial residual = 0, Final residual = 0, No Iterations 0
time step continuity errors : sum local = 3.53064e-08, global = -3.51744e-09, cumulative = -2.05092e-07
DILUPBiCGStab:  Solving for omega, Initial residual = 9.91706e-05, Final residual = 8.55784e-10, No Iterations 2
DILUPBiCGStab:  Solving for k, Initial residual = 0.00652511, Final residual = 2.99688e-09, No Iterations 3

ExecutionTime = 5.39 s  ClockTime = 5 s

    Overall     = 0.0017616, 0.01
Time = 291

diagonal:  Solving for rho, Initial residual = 0, Final residual = 0, No Iterations 0

Execution time for mesh.update() = 0 s

DILUPBiCGStab:  Solving for Ux, Initial residual = 0.00523882, Final residual = 2.16553e-09, No Iterations 3
DILUPBiCGStab:  Solving for Uy, Initial residual = 0.00715196, Final residual = 3.75364e-09, No Iterations 3
DILUPBiCGStab:  Solving for O2, Initial residual = 0.00280327, Final residual = 2.59811e-09, No Iterations 3
DILUPBiCGStab:  Solving for H2O, Initial residual = 0.0028034, Final residual = 2.59864e-09, No Iterations 3
DILUPBiCGStab:  Solving for CH4, Initial residual = 0, Final residual = 0, No Iterations 0
DILUPBiCGStab:  Solving for CO2, Initial residual = 0.0028034, Final residual = 2.59864e-09, No Iterations 3
DILUPBiCGStab:  Solving for h, Initial residual = 0.00330983, Final residual = 2.17143e-09, No Iterations 3
min/max(T) = 299.717, 1044.98
GAMGPCG:  Solving for p_rgh, Initial residual = 0.021749, Final residual = 5.22674e-07, No Iterations 4
diagonal:  Solving for rho, Initial residual = 0, Final residual = 0, No Iterations 0
time step continuity errors : sum local = 2.84963e-08, global = -2.66795e-09, cumulative = -2.0776e-07
GAMGPCG:  Solving for p_rgh, Initial residual = 0.00257522, Final residual = 7.08442e-07, No Iterations 3
diagonal:  Solving for rho, Initial residual = 0, Final residual = 0, No Iterations 0
time step continuity errors : sum local = 3.85166e-08, global = -3.19889e-09, cumulative = -2.10959e-07
DILUPBiCGStab:  Solving for omega, Initial residual = 9.86543e-05, Final residual = 9.33827e-10, No Iterations 2
DILUPBiCGStab:  Solving for k, Initial residual = 0.00654101, Final residual = 2.26469e-09, No Iterations 3

ExecutionTime = 5.51 s  ClockTime = 5 s

    Overall     = 0.00172103, 0.01
Time = 292

diagonal:  Solving for rho, Initial residual = 0, Final residual = 0, No Iterations 0

Execution time for mesh.update() = 0 s

DILUPBiCGStab:  Solving for Ux, Initial residual = 0.00526485, Final residual = 2.25247e-09, No Iterations 3
DILUPBiCGStab:  Solving for Uy, Initial residual = 0.00712906, Final residual = 3.86543e-09, No Iterations 3
DILUPBiCGStab:  Solving for O2, Initial residual = 0.00278677, Final residual = 2.09364e-09, No Iterations 3
DILUPBiCGStab:  Solving for H2O, Initial residual = 0.00278694, Final residual = 2.09384e-09, No Iterations 3
DILUPBiCGStab:  Solving for CH4, Initial residual = 0, Final residual = 0, No Iterations 0
DILUPBiCGStab:  Solving for CO2, Initial residual = 0.00278694, Final residual = 2.09384e-09, No Iterations 3
DILUPBiCGStab:  Solving for h, Initial residual = 0.00329353, Final residual = 1.94137e-09, No Iterations 3
min/max(T) = 299.691, 1044.98
GAMGPCG:  Solving for p_rgh, Initial residual = 0.0208999, Final residual = 5.12011e-07, No Iterations 4
diagonal:  Solving for rho, Initial residual = 0, Final residual = 0, No Iterations 0
time step continuity errors : sum local = 2.81478e-08, global = -1.46424e-09, cumulative = -2.12423e-07
GAMGPCG:  Solving for p_rgh, Initial residual = 0.00259391, Final residual = 7.44158e-07, No Iterations 3
diagonal:  Solving for rho, Initial residual = 0, Final residual = 0, No Iterations 0
time step continuity errors : sum local = 4.02834e-08, global = -2.50929e-09, cumulative = -2.14933e-07
DILUPBiCGStab:  Solving for omega, Initial residual = 9.91256e-05, Final residual = 8.69678e-10, No Iterations 2
DILUPBiCGStab:  Solving for k, Initial residual = 0.00654967, Final residual = 2.54153e-09, No Iterations 3

ExecutionTime = 5.62 s  ClockTime = 6 s

    Overall     = 0.0016821, 0.01
Time = 293

diagonal:  Solving for rho, Initial residual = 0, Final residual = 0, No Iterations 0

[...]

Execution time for mesh.update() = 0 s

DILUPBiCGStab:  Solving for Ux, Initial residual = 0.00509495, Final residual = 9.91153e-09, No Iterations 3
DILUPBiCGStab:  Solving for Uy, Initial residual = 0.00434847, Final residual = 6.86075e-09, No Iterations 3
GAMGPCG:  Solving for G, Initial residual = 0.165098, Final residual = 8.90657e-05, No Iterations 4
DILUPBiCGStab:  Solving for O2, Initial residual = 0.00190308, Final residual = 2.02918e-09, No Iterations 3
DILUPBiCGStab:  Solving for H2O, Initial residual = 0.00190308, Final residual = 2.02918e-09, No Iterations 3
DILUPBiCGStab:  Solving for CH4, Initial residual = 0, Final residual = 0, No Iterations 0
DILUPBiCGStab:  Solving for CO2, Initial residual = 0.00190308, Final residual = 2.02918e-09, No Iterations 3
DILUPBiCGStab:  Solving for h, Initial residual = 0.00208335, Final residual = 2.06529e-09, No Iterations 3
min/max(T) = 300, 1044.98
GAMGPCG:  Solving for p_rgh, Initial residual = 0.0159821, Final residual = 1.65036e-07, No Iterations 5
diagonal:  Solving for rho, Initial residual = 0, Final residual = 0, No Iterations 0
time step continuity errors : sum local = 6.79464e-09, global = -4.90853e-10, cumulative = 2.32725e-06
GAMGPCG:  Solving for p_rgh, Initial residual = 0.0029358, Final residual = 5.21062e-07, No Iterations 4
diagonal:  Solving for rho, Initial residual = 0, Final residual = 0, No Iterations 0
time step continuity errors : sum local = 2.03288e-08, global = 1.41052e-09, cumulative = 2.32866e-06
DILUPBiCGStab:  Solving for omega, Initial residual = 9.25652e-05, Final residual = 1.35002e-09, No Iterations 2
DILUPBiCGStab:  Solving for k, Initial residual = 0.00396403, Final residual = 2.52146e-09, No Iterations 3

ExecutionTime = 291.99 s  ClockTime = 292 s

    Overall     = 0.00124331, 0.01
Time = 2491

diagonal:  Solving for rho, Initial residual = 0, Final residual = 0, No Iterations 0

Execution time for mesh.update() = 0 s

DILUPBiCGStab:  Solving for Ux, Initial residual = 0.00510313, Final residual = 8.05229e-09, No Iterations 3
DILUPBiCGStab:  Solving for Uy, Initial residual = 0.0043638, Final residual = 6.34111e-09, No Iterations 3
DILUPBiCGStab:  Solving for O2, Initial residual = 0.00191306, Final residual = 2.03129e-09, No Iterations 3
DILUPBiCGStab:  Solving for H2O, Initial residual = 0.00191306, Final residual = 2.03129e-09, No Iterations 3
DILUPBiCGStab:  Solving for CH4, Initial residual = 0, Final residual = 0, No Iterations 0
DILUPBiCGStab:  Solving for CO2, Initial residual = 0.00191306, Final residual = 2.03129e-09, No Iterations 3
DILUPBiCGStab:  Solving for h, Initial residual = 0.00209722, Final residual = 2.10542e-09, No Iterations 3
min/max(T) = 300, 1044.98
GAMGPCG:  Solving for p_rgh, Initial residual = 0.0159438, Final residual = 1.58531e-07, No Iterations 5
diagonal:  Solving for rho, Initial residual = 0, Final residual = 0, No Iterations 0
time step continuity errors : sum local = 6.47156e-09, global = -1.97856e-10, cumulative = 2.32846e-06
GAMGPCG:  Solving for p_rgh, Initial residual = 0.00286855, Final residual = 5.28249e-07, No Iterations 4
diagonal:  Solving for rho, Initial residual = 0, Final residual = 0, No Iterations 0
time step continuity errors : sum local = 2.05142e-08, global = 1.3406e-09, cumulative = 2.3298e-06
DILUPBiCGStab:  Solving for omega, Initial residual = 9.26789e-05, Final residual = 1.26767e-09, No Iterations 2
DILUPBiCGStab:  Solving for k, Initial residual = 0.00397348, Final residual = 3.96636e-09, No Iterations 3

ExecutionTime = 292.11 s  ClockTime = 292 s

    Overall     = 0.00124277, 0.01
Time = 2492

diagonal:  Solving for rho, Initial residual = 0, Final residual = 0, No Iterations 0

Execution time for mesh.update() = 0 s

DILUPBiCGStab:  Solving for Ux, Initial residual = 0.00511277, Final residual = 6.69183e-09, No Iterations 3
DILUPBiCGStab:  Solving for Uy, Initial residual = 0.00436168, Final residual = 6.17502e-09, No Iterations 3
DILUPBiCGStab:  Solving for O2, Initial residual = 0.00192203, Final residual = 2.17724e-09, No Iterations 3
DILUPBiCGStab:  Solving for H2O, Initial residual = 0.00192203, Final residual = 2.17724e-09, No Iterations 3
DILUPBiCGStab:  Solving for CH4, Initial residual = 0, Final residual = 0, No Iterations 0
DILUPBiCGStab:  Solving for CO2, Initial residual = 0.00192203, Final residual = 2.17724e-09, No Iterations 3
DILUPBiCGStab:  Solving for h, Initial residual = 0.00210393, Final residual = 2.23523e-09, No Iterations 3
min/max(T) = 300, 1044.98
GAMGPCG:  Solving for p_rgh, Initial residual = 0.0159747, Final residual = 1.62149e-07, No Iterations 5
diagonal:  Solving for rho, Initial residual = 0, Final residual = 0, No Iterations 0
time step continuity errors : sum local = 6.60684e-09, global = -1.63557e-10, cumulative = 2.32964e-06
GAMGPCG:  Solving for p_rgh, Initial residual = 0.0028451, Final residual = 5.63678e-07, No Iterations 4
diagonal:  Solving for rho, Initial residual = 0, Final residual = 0, No Iterations 0
time step continuity errors : sum local = 2.18442e-08, global = 1.41448e-09, cumulative = 2.33105e-06
DILUPBiCGStab:  Solving for omega, Initial residual = 9.19663e-05, Final residual = 1.28759e-09, No Iterations 2
DILUPBiCGStab:  Solving for k, Initial residual = 0.00397893, Final residual = 6.03922e-09, No Iterations 3

ExecutionTime = 292.23 s  ClockTime = 292 s

    Overall     = 0.00124808, 0.01
Time = 2493

diagonal:  Solving for rho, Initial residual = 0, Final residual = 0, No Iterations 0

Execution time for mesh.update() = 0 s

DILUPBiCGStab:  Solving for Ux, Initial residual = 0.00512551, Final residual = 6.33415e-09, No Iterations 3
DILUPBiCGStab:  Solving for Uy, Initial residual = 0.00437191, Final residual = 6.71214e-09, No Iterations 3
DILUPBiCGStab:  Solving for O2, Initial residual = 0.00193212, Final residual = 2.14023e-09, No Iterations 3
DILUPBiCGStab:  Solving for H2O, Initial residual = 0.00193212, Final residual = 2.14024e-09, No Iterations 3
DILUPBiCGStab:  Solving for CH4, Initial residual = 0, Final residual = 0, No Iterations 0
DILUPBiCGStab:  Solving for CO2, Initial residual = 0.00193212, Final residual = 2.14024e-09, No Iterations 3
DILUPBiCGStab:  Solving for h, Initial residual = 0.00211793, Final residual = 2.21434e-09, No Iterations 3
min/max(T) = 300, 1044.98
GAMGPCG:  Solving for p_rgh, Initial residual = 0.0158713, Final residual = 1.82458e-07, No Iterations 5
diagonal:  Solving for rho, Initial residual = 0, Final residual = 0, No Iterations 0
time step continuity errors : sum local = 7.39892e-09, global = 1.9414e-10, cumulative = 2.33125e-06
GAMGPCG:  Solving for p_rgh, Initial residual = 0.00281088, Final residual = 5.62669e-07, No Iterations 4
diagonal:  Solving for rho, Initial residual = 0, Final residual = 0, No Iterations 0
time step continuity errors : sum local = 2.17791e-08, global = 1.39562e-09, cumulative = 2.33264e-06
DILUPBiCGStab:  Solving for omega, Initial residual = 9.2807e-05, Final residual = 1.53876e-09, No Iterations 2
DILUPBiCGStab:  Solving for k, Initial residual = 0.00399522, Final residual = 1.91937e-09, No Iterations 3

ExecutionTime = 292.35 s  ClockTime = 292 s

    Overall     = 0.00124757, 0.01
Time = 2494

diagonal:  Solving for rho, Initial residual = 0, Final residual = 0, No Iterations 0

Execution time for mesh.update() = 0 s

DILUPBiCGStab:  Solving for Ux, Initial residual = 0.00514518, Final residual = 6.2131e-09, No Iterations 3
DILUPBiCGStab:  Solving for Uy, Initial residual = 0.0043773, Final residual = 8.1017e-09, No Iterations 3
DILUPBiCGStab:  Solving for O2, Initial residual = 0.00194395, Final residual = 2.26156e-09, No Iterations 3
DILUPBiCGStab:  Solving for H2O, Initial residual = 0.00194396, Final residual = 2.26156e-09, No Iterations 3
DILUPBiCGStab:  Solving for CH4, Initial residual = 0, Final residual = 0, No Iterations 0
DILUPBiCGStab:  Solving for CO2, Initial residual = 0.00194396, Final residual = 2.26156e-09, No Iterations 3
DILUPBiCGStab:  Solving for h, Initial residual = 0.00212651, Final residual = 2.25825e-09, No Iterations 3
min/max(T) = 300, 1044.98
GAMGPCG:  Solving for p_rgh, Initial residual = 0.0159419, Final residual = 1.83947e-07, No Iterations 5
diagonal:  Solving for rho, Initial residual = 0, Final residual = 0, No Iterations 0
time step continuity errors : sum local = 7.48604e-09, global = 6.69764e-12, cumulative = 2.33265e-06
GAMGPCG:  Solving for p_rgh, Initial residual = 0.00276228, Final residual = 6.013e-07, No Iterations 4
diagonal:  Solving for rho, Initial residual = 0, Final residual = 0, No Iterations 0
time step continuity errors : sum local = 2.30941e-08, global = 1.51595e-09, cumulative = 2.33416e-06
DILUPBiCGStab:  Solving for omega, Initial residual = 9.28623e-05, Final residual = 1.72078e-09, No Iterations 2
DILUPBiCGStab:  Solving for k, Initial residual = 0.00400054, Final residual = 1.91307e-09, No Iterations 3

ExecutionTime = 292.47 s  ClockTime = 293 s

    Overall     = 0.00125287, 0.01
Time = 2495

diagonal:  Solving for rho, Initial residual = 0, Final residual = 0, No Iterations 0

Execution time for mesh.update() = 0 s

DILUPBiCGStab:  Solving for Ux, Initial residual = 0.00514793, Final residual = 6.34763e-09, No Iterations 3
DILUPBiCGStab:  Solving for Uy, Initial residual = 0.00437665, Final residual = 7.25192e-09, No Iterations 3
DILUPBiCGStab:  Solving for O2, Initial residual = 0.00195187, Final residual = 2.56574e-09, No Iterations 3
DILUPBiCGStab:  Solving for H2O, Initial residual = 0.00195188, Final residual = 2.56574e-09, No Iterations 3
DILUPBiCGStab:  Solving for CH4, Initial residual = 0, Final residual = 0, No Iterations 0
DILUPBiCGStab:  Solving for CO2, Initial residual = 0.00195188, Final residual = 2.56574e-09, No Iterations 3
DILUPBiCGStab:  Solving for h, Initial residual = 0.0021426, Final residual = 2.4274e-09, No Iterations 3
min/max(T) = 300, 1044.98
GAMGPCG:  Solving for p_rgh, Initial residual = 0.0160072, Final residual = 2.04073e-07, No Iterations 5
diagonal:  Solving for rho, Initial residual = 0, Final residual = 0, No Iterations 0
time step continuity errors : sum local = 8.24644e-09, global = 1.05746e-10, cumulative = 2.33427e-06
GAMGPCG:  Solving for p_rgh, Initial residual = 0.00272645, Final residual = 6.19466e-07, No Iterations 4
diagonal:  Solving for rho, Initial residual = 0, Final residual = 0, No Iterations 0
time step continuity errors : sum local = 2.36602e-08, global = 1.71118e-09, cumulative = 2.33598e-06
DILUPBiCGStab:  Solving for omega, Initial residual = 9.31907e-05, Final residual = 1.82254e-09, No Iterations 2
DILUPBiCGStab:  Solving for k, Initial residual = 0.00400658, Final residual = 1.98245e-09, No Iterations 3

ExecutionTime = 292.58 s  ClockTime = 293 s

    Overall     = 0.00125219, 0.01
Time = 2496

diagonal:  Solving for rho, Initial residual = 0, Final residual = 0, No Iterations 0

Execution time for mesh.update() = 0 s

DILUPBiCGStab:  Solving for Ux, Initial residual = 0.00517391, Final residual = 6.40318e-09, No Iterations 3
DILUPBiCGStab:  Solving for Uy, Initial residual = 0.00438862, Final residual = 7.48349e-09, No Iterations 3
DILUPBiCGStab:  Solving for O2, Initial residual = 0.00196134, Final residual = 3.46824e-09, No Iterations 3
DILUPBiCGStab:  Solving for H2O, Initial residual = 0.00196135, Final residual = 3.46824e-09, No Iterations 3
DILUPBiCGStab:  Solving for CH4, Initial residual = 0, Final residual = 0, No Iterations 0
DILUPBiCGStab:  Solving for CO2, Initial residual = 0.00196135, Final residual = 3.46824e-09, No Iterations 3
DILUPBiCGStab:  Solving for h, Initial residual = 0.00214602, Final residual = 3.25796e-09, No Iterations 3
min/max(T) = 300, 1044.98
GAMGPCG:  Solving for p_rgh, Initial residual = 0.0158914, Final residual = 1.97419e-07, No Iterations 5
diagonal:  Solving for rho, Initial residual = 0, Final residual = 0, No Iterations 0
time step continuity errors : sum local = 8.02306e-09, global = -1.69953e-10, cumulative = 2.33581e-06
GAMGPCG:  Solving for p_rgh, Initial residual = 0.00272443, Final residual = 6.41741e-07, No Iterations 4
diagonal:  Solving for rho, Initial residual = 0, Final residual = 0, No Iterations 0
time step continuity errors : sum local = 2.43952e-08, global = 1.71281e-09, cumulative = 2.33752e-06
DILUPBiCGStab:  Solving for omega, Initial residual = 9.3344e-05, Final residual = 1.88219e-09, No Iterations 2
DILUPBiCGStab:  Solving for k, Initial residual = 0.00401287, Final residual = 2.31956e-09, No Iterations 3

ExecutionTime = 292.7 s  ClockTime = 293 s

    Overall     = 0.00125754, 0.01
Time = 2497

diagonal:  Solving for rho, Initial residual = 0, Final residual = 0, No Iterations 0

Execution time for mesh.update() = 0 s

DILUPBiCGStab:  Solving for Ux, Initial residual = 0.00517495, Final residual = 5.88245e-09, No Iterations 3
DILUPBiCGStab:  Solving for Uy, Initial residual = 0.00438698, Final residual = 5.36429e-09, No Iterations 3
DILUPBiCGStab:  Solving for O2, Initial residual = 0.00196606, Final residual = 4.56393e-09, No Iterations 3
DILUPBiCGStab:  Solving for H2O, Initial residual = 0.00196606, Final residual = 4.56394e-09, No Iterations 3
DILUPBiCGStab:  Solving for CH4, Initial residual = 0, Final residual = 0, No Iterations 0
DILUPBiCGStab:  Solving for CO2, Initial residual = 0.00196606, Final residual = 4.56394e-09, No Iterations 3
DILUPBiCGStab:  Solving for h, Initial residual = 0.00215367, Final residual = 5.08038e-09, No Iterations 3
min/max(T) = 300, 1044.98
GAMGPCG:  Solving for p_rgh, Initial residual = 0.0158289, Final residual = 2.17767e-07, No Iterations 5
diagonal:  Solving for rho, Initial residual = 0, Final residual = 0, No Iterations 0
time step continuity errors : sum local = 8.78426e-09, global = -2.48979e-10, cumulative = 2.33727e-06
GAMGPCG:  Solving for p_rgh, Initial residual = 0.00266677, Final residual = 6.31767e-07, No Iterations 4
diagonal:  Solving for rho, Initial residual = 0, Final residual = 0, No Iterations 0
time step continuity errors : sum local = 2.39709e-08, global = 1.77307e-09, cumulative = 2.33905e-06
DILUPBiCGStab:  Solving for omega, Initial residual = 9.36117e-05, Final residual = 1.89611e-09, No Iterations 2
DILUPBiCGStab:  Solving for k, Initial residual = 0.00402271, Final residual = 2.24733e-09, No Iterations 3

ExecutionTime = 292.82 s  ClockTime = 293 s

    Overall     = 0.00125665, 0.01
Time = 2498

diagonal:  Solving for rho, Initial residual = 0, Final residual = 0, No Iterations 0

Execution time for mesh.update() = 0 s

DILUPBiCGStab:  Solving for Ux, Initial residual = 0.00519169, Final residual = 6.44354e-09, No Iterations 3
DILUPBiCGStab:  Solving for Uy, Initial residual = 0.00439321, Final residual = 4.8706e-09, No Iterations 3
DILUPBiCGStab:  Solving for O2, Initial residual = 0.00197034, Final residual = 4.78889e-09, No Iterations 3
DILUPBiCGStab:  Solving for H2O, Initial residual = 0.00197035, Final residual = 4.78889e-09, No Iterations 3
DILUPBiCGStab:  Solving for CH4, Initial residual = 0, Final residual = 0, No Iterations 0
DILUPBiCGStab:  Solving for CO2, Initial residual = 0.00197035, Final residual = 4.78889e-09, No Iterations 3
DILUPBiCGStab:  Solving for h, Initial residual = 0.00215584, Final residual = 3.96383e-09, No Iterations 3
min/max(T) = 300, 1044.98
GAMGPCG:  Solving for p_rgh, Initial residual = 0.0160733, Final residual = 2.1925e-07, No Iterations 5
diagonal:  Solving for rho, Initial residual = 0, Final residual = 0, No Iterations 0
time step continuity errors : sum local = 8.88296e-09, global = -7.98124e-10, cumulative = 2.33825e-06
GAMGPCG:  Solving for p_rgh, Initial residual = 0.00267529, Final residual = 6.35709e-07, No Iterations 4
diagonal:  Solving for rho, Initial residual = 0, Final residual = 0, No Iterations 0
time step continuity errors : sum local = 2.41494e-08, global = 1.5346e-09, cumulative = 2.33978e-06
DILUPBiCGStab:  Solving for omega, Initial residual = 9.33685e-05, Final residual = 1.90195e-09, No Iterations 2
DILUPBiCGStab:  Solving for k, Initial residual = 0.00402358, Final residual = 3.86762e-09, No Iterations 3

ExecutionTime = 292.95 s  ClockTime = 293 s

    Overall     = 0.00126206, 0.01
Time = 2499

diagonal:  Solving for rho, Initial residual = 0, Final residual = 0, No Iterations 0

Execution time for mesh.update() = 0 s

DILUPBiCGStab:  Solving for Ux, Initial residual = 0.00518787, Final residual = 6.90203e-09, No Iterations 3
DILUPBiCGStab:  Solving for Uy, Initial residual = 0.00439694, Final residual = 4.35096e-09, No Iterations 3
DILUPBiCGStab:  Solving for O2, Initial residual = 0.00197764, Final residual = 2.62452e-09, No Iterations 3
DILUPBiCGStab:  Solving for H2O, Initial residual = 0.00197765, Final residual = 2.62452e-09, No Iterations 3
DILUPBiCGStab:  Solving for CH4, Initial residual = 0, Final residual = 0, No Iterations 0
DILUPBiCGStab:  Solving for CO2, Initial residual = 0.00197765, Final residual = 2.62452e-09, No Iterations 3
DILUPBiCGStab:  Solving for h, Initial residual = 0.00216563, Final residual = 2.41293e-09, No Iterations 3
min/max(T) = 300, 1044.98
GAMGPCG:  Solving for p_rgh, Initial residual = 0.0161511, Final residual = 2.28762e-07, No Iterations 5
diagonal:  Solving for rho, Initial residual = 0, Final residual = 0, No Iterations 0
time step continuity errors : sum local = 9.16183e-09, global = -7.58892e-10, cumulative = 2.33903e-06
GAMGPCG:  Solving for p_rgh, Initial residual = 0.00271067, Final residual = 6.24655e-07, No Iterations 4
diagonal:  Solving for rho, Initial residual = 0, Final residual = 0, No Iterations 0
time step continuity errors : sum local = 2.34973e-08, global = 1.46501e-09, cumulative = 2.34049e-06
DILUPBiCGStab:  Solving for omega, Initial residual = 9.36057e-05, Final residual = 1.8792e-09, No Iterations 2
DILUPBiCGStab:  Solving for k, Initial residual = 0.00403062, Final residual = 9.43902e-09, No Iterations 3

ExecutionTime = 293.06 s  ClockTime = 293 s

    Overall     = 0.00126093, 0.01
Time = 2500

diagonal:  Solving for rho, Initial residual = 0, Final residual = 0, No Iterations 0

Execution time for mesh.update() = 0 s

DILUPBiCGStab:  Solving for Ux, Initial residual = 0.00520813, Final residual = 7.85365e-09, No Iterations 3
DILUPBiCGStab:  Solving for Uy, Initial residual = 0.00440387, Final residual = 4.49747e-09, No Iterations 3
GAMGPCG:  Solving for G, Initial residual = 0.167218, Final residual = 7.24185e-05, No Iterations 5
DILUPBiCGStab:  Solving for O2, Initial residual = 0.00197607, Final residual = 2.47378e-09, No Iterations 3
DILUPBiCGStab:  Solving for H2O, Initial residual = 0.00197607, Final residual = 2.47378e-09, No Iterations 3
DILUPBiCGStab:  Solving for CH4, Initial residual = 0, Final residual = 0, No Iterations 0
DILUPBiCGStab:  Solving for CO2, Initial residual = 0.00197607, Final residual = 2.47378e-09, No Iterations 3
DILUPBiCGStab:  Solving for h, Initial residual = 0.00216195, Final residual = 2.37151e-09, No Iterations 3
min/max(T) = 300, 1044.98
GAMGPCG:  Solving for p_rgh, Initial residual = 0.0161221, Final residual = 2.11907e-07, No Iterations 5
diagonal:  Solving for rho, Initial residual = 0, Final residual = 0, No Iterations 0
time step continuity errors : sum local = 8.57836e-09, global = -1.12352e-09, cumulative = 2.33937e-06
GAMGPCG:  Solving for p_rgh, Initial residual = 0.00273388, Final residual = 6.28048e-07, No Iterations 4
diagonal:  Solving for rho, Initial residual = 0, Final residual = 0, No Iterations 0
time step continuity errors : sum local = 2.35941e-08, global = 1.33335e-09, cumulative = 2.3407e-06
DILUPBiCGStab:  Solving for omega, Initial residual = 9.34609e-05, Final residual = 1.87198e-09, No Iterations 2
DILUPBiCGStab:  Solving for k, Initial residual = 0.00402882, Final residual = 6.3946e-09, No Iterations 3

ExecutionTime = 293.31 s  ClockTime = 293 s


Patch Mean : 303.194
Patch Variance : 0.00549937
Patch Gradient : 0.224032
End
