/*---------------------------------------------------------------------------*\
  =========                 |
  \\      /  F ield         | OpenFOAM: The Open Source CFD Toolbox
   \\    /   O peration     | Website:  https://openfoam.org
    \\  /    A nd           | Version:  dev
     \\/     M anipulation  |
\*---------------------------------------------------------------------------*/
Build  : dev-cabe48fb62c1
Exec   : fireDyMFoam
Date   : Apr 15 2019
Time   : 12:32:07
Host   : "Host"
PID    : 672
I/O    : uncollated
Case   : /home/tesla/OpenFOAM/tesla-dev/run/rollerOpt_COBYLA_NEW
nProcs : 1
sigFpe : Enabling floating point exception trapping (FOAM_SIGFPE).
fileModificationChecking : Monitoring run-time modified files using timeStampMaster (fileModificationSkew 10)
allowSystemOperations : Allowing user-supplied system call operations

// * * * * * * * * * * * * * * * * * * * * * * * * * * * * * * * * * * * * * //
Create time

--> FOAM Warning : 
    From function void* Foam::dlOpen(const Foam::fileName&, bool)
    in file POSIX.C at line 1268
    dlopen error : libgroovyBC.so: cannot open shared object file: No such file or directory
--> FOAM Warning : 
    From function bool Foam::dlLibraryTable::open(const Foam::fileName&, bool)
    in file db/dynamicLibrary/dlLibraryTable/dlLibraryTable.C at line 105
    could not load "libgroovyBC.so"
Create mesh for time = 250

Selecting dynamicFvMesh dynamicRefineFvMesh
Detected 554 cells that are protected from refinement. Writing these to cellSet protectedCells.

PIMPLE: No convergence criteria found


PIMPLE: Operating solver in PISO mode


Initializing Solver

Selecting thermodynamics package 
{
    type            hePsiThermo;
    mixture         reactingMixture;
    transport       sutherland;
    thermo          janaf;
    energy          sensibleEnthalpy;
    equationOfState perfectGas;
    specie          specie;
}

Selecting chemistryReader foamChemistryReader
    elements not defined in "/home/tesla/OpenFOAM/tesla-dev/run/rollerOpt_COBYLA_NEW/constant/reactions"
Reading/calculating face flux field phi

No MRF models present

Selecting turbulence model type RAS
Selecting RAS turbulence model kOmegaSST
Selecting patchDistMethod meshWave
kOmegaSSTCoeffs
{
    delta           cubeRootVol;
    cubeRootVolCoeffs
    {
        deltaCoeff      1;
    }
    alphaK1         0.85;
    alphaK2         1;
    alphaOmega1     0.5;
    alphaOmega2     0.856;
    gamma1          0.555556;
    gamma2          0.44;
    beta1           0.075;
    beta2           0.0828;
    betaStar        0.09;
    a1              0.31;
    b1              1;
    c1              10;
    F3              false;
}

Selecting combustion model none<psiThermoCombustion>
--> FOAM Warning : 
    From function static Foam::autoPtr<T> Foam::combustionModel::New(typename CombustionModel::reactionThermo&, const Foam::compressibleTurbulenceModel&, const Foam::word&) [with CombustionModel = Foam::CombustionModel<Foam::psiReactionThermo>; typename CombustionModel::reactionThermo = Foam::psiReactionThermo]
    in file /home/tesla/OpenFOAM/OpenFOAM-dev/src/combustionModels/lnInclude/combustionModelTemplates.C at line 69
    Template parameters are no longer required when selecting a combustionModel. This information is now obtained directly from the thermodynamics. Actually selecting combustion model none.

Reading g

Reading hRef
Calculating field g.h


Reading pRef
Selecting radiationModel P1
Selecting absorptionEmissionModel greyMeanAbsorptionEmission
Selecting scatterModel none
Selecting sootModel none
Creating finite volume options from "system/fvOptions"

No finite volume options present
Using LTS

Starting time loop

Using dynamicCode for functionObject patchCalcs at line 64 in "/home/tesla/OpenFOAM/tesla-dev/run/rollerOpt_COBYLA_NEW/system/controlDict.functions.patchCalcs"
    Overall     = 0.00204678, 0.01
Time = 251

diagonal:  Solving for rho, Initial residual = 0, Final residual = 0, No Iterations 0

Execution time for mesh.update() = 0 s

DILUPBiCGStab:  Solving for Ux, Initial residual = 0.00615154, Final residual = 3.77727e-09, No Iterations 3
DILUPBiCGStab:  Solving for Uy, Initial residual = 0.00850133, Final residual = 5.88402e-09, No Iterations 3
GAMGPCG:  Solving for G, Initial residual = 0.0329729, Final residual = 9.91442e-05, No Iterations 4
DILUPBiCGStab:  Solving for O2, Initial residual = 0.00274289, Final residual = 1.88435e-09, No Iterations 3
DILUPBiCGStab:  Solving for H2O, Initial residual = 0.00274282, Final residual = 1.88432e-09, No Iterations 3
DILUPBiCGStab:  Solving for CH4, Initial residual = 0, Final residual = 0, No Iterations 0
DILUPBiCGStab:  Solving for CO2, Initial residual = 0.00274282, Final residual = 1.88433e-09, No Iterations 3
DILUPBiCGStab:  Solving for h, Initial residual = 0.00307623, Final residual = 1.94221e-09, No Iterations 3
min/max(T) = 299.988, 1044.98
GAMGPCG:  Solving for p_rgh, Initial residual = 0.0192398, Final residual = 1.27981e-07, No Iterations 5
diagonal:  Solving for rho, Initial residual = 0, Final residual = 0, No Iterations 0
time step continuity errors : sum local = 2.46362e-06, global = -9.56833e-08, cumulative = -9.56833e-08
GAMGPCG:  Solving for p_rgh, Initial residual = 0.00285623, Final residual = 2.30949e-07, No Iterations 4
diagonal:  Solving for rho, Initial residual = 0, Final residual = 0, No Iterations 0
time step continuity errors : sum local = 2.46488e-06, global = -9.57278e-08, cumulative = -1.91411e-07
DILUPBiCGStab:  Solving for omega, Initial residual = 0.00012134, Final residual = 1.16249e-09, No Iterations 2
DILUPBiCGStab:  Solving for k, Initial residual = 0.00518641, Final residual = 2.50422e-09, No Iterations 3

ExecutionTime = 0.38 s  ClockTime = 0 s

    Overall     = 0.0020469, 0.01
Time = 252

diagonal:  Solving for rho, Initial residual = 0, Final residual = 0, No Iterations 0

Execution time for mesh.update() = 0 s

DILUPBiCGStab:  Solving for Ux, Initial residual = 0.00615877, Final residual = 3.59904e-09, No Iterations 3
DILUPBiCGStab:  Solving for Uy, Initial residual = 0.00846595, Final residual = 5.94406e-09, No Iterations 3
DILUPBiCGStab:  Solving for O2, Initial residual = 0.00275932, Final residual = 1.88051e-09, No Iterations 3
DILUPBiCGStab:  Solving for H2O, Initial residual = 0.0027593, Final residual = 1.88044e-09, No Iterations 3
DILUPBiCGStab:  Solving for CH4, Initial residual = 0, Final residual = 0, No Iterations 0
DILUPBiCGStab:  Solving for CO2, Initial residual = 0.0027593, Final residual = 1.88044e-09, No Iterations 3
DILUPBiCGStab:  Solving for h, Initial residual = 0.00309764, Final residual = 1.97716e-09, No Iterations 3
min/max(T) = 299.991, 1044.98
GAMGPCG:  Solving for p_rgh, Initial residual = 0.0198281, Final residual = 1.078e-07, No Iterations 5
diagonal:  Solving for rho, Initial residual = 0, Final residual = 0, No Iterations 0
time step continuity errors : sum local = 8.24835e-09, global = 7.93974e-10, cumulative = -1.90617e-07
GAMGPCG:  Solving for p_rgh, Initial residual = 0.0028117, Final residual = 2.38923e-07, No Iterations 4
diagonal:  Solving for rho, Initial residual = 0, Final residual = 0, No Iterations 0
time step continuity errors : sum local = 1.71518e-08, global = 1.16675e-09, cumulative = -1.8945e-07
DILUPBiCGStab:  Solving for omega, Initial residual = 0.000120911, Final residual = 1.13631e-09, No Iterations 2
DILUPBiCGStab:  Solving for k, Initial residual = 0.00518631, Final residual = 2.19655e-09, No Iterations 3

ExecutionTime = 0.49 s  ClockTime = 0 s

    Overall     = 0.00204732, 0.01
Time = 253

diagonal:  Solving for rho, Initial residual = 0, Final residual = 0, No Iterations 0

Execution time for mesh.update() = 0 s

DILUPBiCGStab:  Solving for Ux, Initial residual = 0.00618337, Final residual = 3.50629e-09, No Iterations 3
DILUPBiCGStab:  Solving for Uy, Initial residual = 0.00844389, Final residual = 5.62124e-09, No Iterations 3
DILUPBiCGStab:  Solving for O2, Initial residual = 0.0027793, Final residual = 1.93909e-09, No Iterations 3
DILUPBiCGStab:  Solving for H2O, Initial residual = 0.00277929, Final residual = 1.93903e-09, No Iterations 3
DILUPBiCGStab:  Solving for CH4, Initial residual = 0, Final residual = 0, No Iterations 0
DILUPBiCGStab:  Solving for CO2, Initial residual = 0.00277929, Final residual = 1.93903e-09, No Iterations 3
DILUPBiCGStab:  Solving for h, Initial residual = 0.00311441, Final residual = 2.03928e-09, No Iterations 3
min/max(T) = 299.991, 1044.98
GAMGPCG:  Solving for p_rgh, Initial residual = 0.0194145, Final residual = 1.43193e-07, No Iterations 5
diagonal:  Solving for rho, Initial residual = 0, Final residual = 0, No Iterations 0
time step continuity errors : sum local = 1.09486e-08, global = 9.51293e-10, cumulative = -1.88499e-07
GAMGPCG:  Solving for p_rgh, Initial residual = 0.00288175, Final residual = 1.89573e-07, No Iterations 4
diagonal:  Solving for rho, Initial residual = 0, Final residual = 0, No Iterations 0
time step continuity errors : sum local = 1.35628e-08, global = 1.24698e-09, cumulative = -1.87252e-07
DILUPBiCGStab:  Solving for omega, Initial residual = 0.000120807, Final residual = 1.10267e-09, No Iterations 2
DILUPBiCGStab:  Solving for k, Initial residual = 0.00517984, Final residual = 2.12543e-09, No Iterations 3

ExecutionTime = 0.61 s  ClockTime = 1 s

    Overall     = 0.00204771, 0.01
Time = 254

diagonal:  Solving for rho, Initial residual = 0, Final residual = 0, No Iterations 0

Execution time for mesh.update() = 0 s

DILUPBiCGStab:  Solving for Ux, Initial residual = 0.00620812, Final residual = 3.35458e-09, No Iterations 3
DILUPBiCGStab:  Solving for Uy, Initial residual = 0.00842026, Final residual = 5.18941e-09, No Iterations 3
DILUPBiCGStab:  Solving for O2, Initial residual = 0.00279738, Final residual = 1.91002e-09, No Iterations 3
DILUPBiCGStab:  Solving for H2O, Initial residual = 0.00279737, Final residual = 1.90994e-09, No Iterations 3
DILUPBiCGStab:  Solving for CH4, Initial residual = 0, Final residual = 0, No Iterations 0
DILUPBiCGStab:  Solving for CO2, Initial residual = 0.00279737, Final residual = 1.90994e-09, No Iterations 3
DILUPBiCGStab:  Solving for h, Initial residual = 0.00313063, Final residual = 2.02775e-09, No Iterations 3
min/max(T) = 299.994, 1044.98
GAMGPCG:  Solving for p_rgh, Initial residual = 0.0194295, Final residual = 1.32436e-07, No Iterations 5
diagonal:  Solving for rho, Initial residual = 0, Final residual = 0, No Iterations 0
time step continuity errors : sum local = 1.0111e-08, global = 8.55091e-10, cumulative = -1.86397e-07
GAMGPCG:  Solving for p_rgh, Initial residual = 0.00282331, Final residual = 1.99444e-07, No Iterations 4
diagonal:  Solving for rho, Initial residual = 0, Final residual = 0, No Iterations 0
time step continuity errors : sum local = 1.44119e-08, global = 1.38399e-09, cumulative = -1.85013e-07
DILUPBiCGStab:  Solving for omega, Initial residual = 0.000121084, Final residual = 1.10988e-09, No Iterations 2
DILUPBiCGStab:  Solving for k, Initial residual = 0.00518141, Final residual = 1.95037e-09, No Iterations 3

ExecutionTime = 0.73 s  ClockTime = 1 s

    Overall     = 0.00204852, 0.01
Time = 255

diagonal:  Solving for rho, Initial residual = 0, Final residual = 0, No Iterations 0

Execution time for mesh.update() = 0 s

DILUPBiCGStab:  Solving for Ux, Initial residual = 0.00623944, Final residual = 3.47548e-09, No Iterations 3
DILUPBiCGStab:  Solving for Uy, Initial residual = 0.00838468, Final residual = 4.73091e-09, No Iterations 3
DILUPBiCGStab:  Solving for O2, Initial residual = 0.00281139, Final residual = 2.01119e-09, No Iterations 3
DILUPBiCGStab:  Solving for H2O, Initial residual = 0.00281139, Final residual = 2.0111e-09, No Iterations 3
DILUPBiCGStab:  Solving for CH4, Initial residual = 0, Final residual = 0, No Iterations 0
DILUPBiCGStab:  Solving for CO2, Initial residual = 0.00281139, Final residual = 2.0111e-09, No Iterations 3
DILUPBiCGStab:  Solving for h, Initial residual = 0.00314494, Final residual = 2.10292e-09, No Iterations 3
min/max(T) = 299.997, 1044.98
GAMGPCG:  Solving for p_rgh, Initial residual = 0.0195998, Final residual = 1.44055e-07, No Iterations 5
diagonal:  Solving for rho, Initial residual = 0, Final residual = 0, No Iterations 0
time step continuity errors : sum local = 1.09036e-08, global = 5.45601e-10, cumulative = -1.84467e-07
GAMGPCG:  Solving for p_rgh, Initial residual = 0.00282506, Final residual = 1.99821e-07, No Iterations 4
diagonal:  Solving for rho, Initial residual = 0, Final residual = 0, No Iterations 0
time step continuity errors : sum local = 1.44444e-08, global = 1.8026e-09, cumulative = -1.82665e-07
DILUPBiCGStab:  Solving for omega, Initial residual = 0.000121406, Final residual = 1.11187e-09, No Iterations 2
DILUPBiCGStab:  Solving for k, Initial residual = 0.0051692, Final residual = 1.92558e-09, No Iterations 3

ExecutionTime = 0.86 s  ClockTime = 1 s

    Overall     = 0.00204915, 0.01
Time = 256

diagonal:  Solving for rho, Initial residual = 0, Final residual = 0, No Iterations 0

Execution time for mesh.update() = 0 s

DILUPBiCGStab:  Solving for Ux, Initial residual = 0.00622924, Final residual = 3.2757e-09, No Iterations 3
DILUPBiCGStab:  Solving for Uy, Initial residual = 0.00835833, Final residual = 4.78424e-09, No Iterations 3
DILUPBiCGStab:  Solving for O2, Initial residual = 0.00283026, Final residual = 2.00149e-09, No Iterations 3
DILUPBiCGStab:  Solving for H2O, Initial residual = 0.00283026, Final residual = 2.00144e-09, No Iterations 3
DILUPBiCGStab:  Solving for CH4, Initial residual = 0, Final residual = 0, No Iterations 0
DILUPBiCGStab:  Solving for CO2, Initial residual = 0.00283026, Final residual = 2.00144e-09, No Iterations 3
DILUPBiCGStab:  Solving for h, Initial residual = 0.00315945, Final residual = 2.10297e-09, No Iterations 3
min/max(T) = 300, 1044.98
GAMGPCG:  Solving for p_rgh, Initial residual = 0.0195542, Final residual = 1.43351e-07, No Iterations 5
diagonal:  Solving for rho, Initial residual = 0, Final residual = 0, No Iterations 0
time step continuity errors : sum local = 1.08475e-08, global = 3.32009e-10, cumulative = -1.82333e-07
GAMGPCG:  Solving for p_rgh, Initial residual = 0.00288499, Final residual = 2.35806e-07, No Iterations 4
diagonal:  Solving for rho, Initial residual = 0, Final residual = 0, No Iterations 0
time step continuity errors : sum local = 1.70983e-08, global = 2.46102e-09, cumulative = -1.79872e-07
DILUPBiCGStab:  Solving for omega, Initial residual = 0.000120933, Final residual = 1.13074e-09, No Iterations 2
DILUPBiCGStab:  Solving for k, Initial residual = 0.00515028, Final residual = 1.93926e-09, No Iterations 3

ExecutionTime = 0.98 s  ClockTime = 1 s

    Overall     = 0.00205029, 0.01
Time = 257

diagonal:  Solving for rho, Initial residual = 0, Final residual = 0, No Iterations 0

Execution time for mesh.update() = 0 s

DILUPBiCGStab:  Solving for Ux, Initial residual = 0.00623506, Final residual = 3.16326e-09, No Iterations 3
DILUPBiCGStab:  Solving for Uy, Initial residual = 0.00832541, Final residual = 4.40072e-09, No Iterations 3
DILUPBiCGStab:  Solving for O2, Initial residual = 0.00285262, Final residual = 2.08221e-09, No Iterations 3
DILUPBiCGStab:  Solving for H2O, Initial residual = 0.00285262, Final residual = 2.08215e-09, No Iterations 3
DILUPBiCGStab:  Solving for CH4, Initial residual = 0, Final residual = 0, No Iterations 0
DILUPBiCGStab:  Solving for CO2, Initial residual = 0.00285262, Final residual = 2.08215e-09, No Iterations 3
DILUPBiCGStab:  Solving for h, Initial residual = 0.00318575, Final residual = 2.18233e-09, No Iterations 3
min/max(T) = 300, 1044.98
GAMGPCG:  Solving for p_rgh, Initial residual = 0.018947, Final residual = 1.58856e-07, No Iterations 5
diagonal:  Solving for rho, Initial residual = 0, Final residual = 0, No Iterations 0
time step continuity errors : sum local = 1.2054e-08, global = -4.69963e-12, cumulative = -1.79876e-07
GAMGPCG:  Solving for p_rgh, Initial residual = 0.00286475, Final residual = 2.37934e-07, No Iterations 4
diagonal:  Solving for rho, Initial residual = 0, Final residual = 0, No Iterations 0
time step continuity errors : sum local = 1.72866e-08, global = 2.64165e-09, cumulative = -1.77235e-07
DILUPBiCGStab:  Solving for omega, Initial residual = 0.000121585, Final residual = 1.14922e-09, No Iterations 2
DILUPBiCGStab:  Solving for k, Initial residual = 0.00515106, Final residual = 1.87421e-09, No Iterations 3

ExecutionTime = 1.1 s  ClockTime = 1 s

    Overall     = 0.00205109, 0.01
Time = 258

diagonal:  Solving for rho, Initial residual = 0, Final residual = 0, No Iterations 0

Execution time for mesh.update() = 0 s

DILUPBiCGStab:  Solving for Ux, Initial residual = 0.00625939, Final residual = 3.23746e-09, No Iterations 3
DILUPBiCGStab:  Solving for Uy, Initial residual = 0.00829624, Final residual = 4.46641e-09, No Iterations 3
DILUPBiCGStab:  Solving for O2, Initial residual = 0.00287452, Final residual = 2.06453e-09, No Iterations 3
DILUPBiCGStab:  Solving for H2O, Initial residual = 0.00287452, Final residual = 2.06448e-09, No Iterations 3
DILUPBiCGStab:  Solving for CH4, Initial residual = 0, Final residual = 0, No Iterations 0
DILUPBiCGStab:  Solving for CO2, Initial residual = 0.00287452, Final residual = 2.06448e-09, No Iterations 3
DILUPBiCGStab:  Solving for h, Initial residual = 0.00320343, Final residual = 2.20927e-09, No Iterations 3
min/max(T) = 300, 1044.98
GAMGPCG:  Solving for p_rgh, Initial residual = 0.0192086, Final residual = 1.52074e-07, No Iterations 5
diagonal:  Solving for rho, Initial residual = 0, Final residual = 0, No Iterations 0
time step continuity errors : sum local = 1.15224e-08, global = -3.72305e-10, cumulative = -1.77607e-07
GAMGPCG:  Solving for p_rgh, Initial residual = 0.00278387, Final residual = 2.73076e-07, No Iterations 4
diagonal:  Solving for rho, Initial residual = 0, Final residual = 0, No Iterations 0
time step continuity errors : sum local = 1.97256e-08, global = 3.36253e-09, cumulative = -1.74245e-07
DILUPBiCGStab:  Solving for omega, Initial residual = 0.000122353, Final residual = 1.16541e-09, No Iterations 2
DILUPBiCGStab:  Solving for k, Initial residual = 0.00515223, Final residual = 1.91539e-09, No Iterations 3

ExecutionTime = 1.21 s  ClockTime = 1 s

    Overall     = 0.00205243, 0.01
Time = 259

diagonal:  Solving for rho, Initial residual = 0, Final residual = 0, No Iterations 0

Execution time for mesh.update() = 0 s

DILUPBiCGStab:  Solving for Ux, Initial residual = 0.00625949, Final residual = 3.17778e-09, No Iterations 3
DILUPBiCGStab:  Solving for Uy, Initial residual = 0.00827812, Final residual = 4.23614e-09, No Iterations 3
DILUPBiCGStab:  Solving for O2, Initial residual = 0.00290051, Final residual = 2.13286e-09, No Iterations 3
DILUPBiCGStab:  Solving for H2O, Initial residual = 0.00290051, Final residual = 2.13282e-09, No Iterations 3
DILUPBiCGStab:  Solving for CH4, Initial residual = 0, Final residual = 0, No Iterations 0
DILUPBiCGStab:  Solving for CO2, Initial residual = 0.00290051, Final residual = 2.13282e-09, No Iterations 3
DILUPBiCGStab:  Solving for h, Initial residual = 0.00323354, Final residual = 2.25634e-09, No Iterations 3
min/max(T) = 300, 1044.98
GAMGPCG:  Solving for p_rgh, Initial residual = 0.0189723, Final residual = 1.70099e-07, No Iterations 5
diagonal:  Solving for rho, Initial residual = 0, Final residual = 0, No Iterations 0
time step continuity errors : sum local = 1.29555e-08, global = -7.52717e-10, cumulative = -1.74997e-07
GAMGPCG:  Solving for p_rgh, Initial residual = 0.00284555, Final residual = 2.59871e-07, No Iterations 4
diagonal:  Solving for rho, Initial residual = 0, Final residual = 0, No Iterations 0
time step continuity errors : sum local = 1.86938e-08, global = 2.82116e-09, cumulative = -1.72176e-07
DILUPBiCGStab:  Solving for omega, Initial residual = 0.00012167, Final residual = 1.20211e-09, No Iterations 2
DILUPBiCGStab:  Solving for k, Initial residual = 0.00515003, Final residual = 1.8929e-09, No Iterations 3

ExecutionTime = 1.33 s  ClockTime = 1 s

    Overall     = 0.00205326, 0.01
Time = 260

diagonal:  Solving for rho, Initial residual = 0, Final residual = 0, No Iterations 0

Execution time for mesh.update() = 0 s

DILUPBiCGStab:  Solving for Ux, Initial residual = 0.0062642, Final residual = 3.10914e-09, No Iterations 3
DILUPBiCGStab:  Solving for Uy, Initial residual = 0.00823906, Final residual = 4.28124e-09, No Iterations 3
GAMGPCG:  Solving for G, Initial residual = 0.135693, Final residual = 3.77151e-05, No Iterations 6
DILUPBiCGStab:  Solving for O2, Initial residual = 0.00291595, Final residual = 2.22228e-09, No Iterations 3
DILUPBiCGStab:  Solving for H2O, Initial residual = 0.00291596, Final residual = 2.22225e-09, No Iterations 3
DILUPBiCGStab:  Solving for CH4, Initial residual = 0, Final residual = 0, No Iterations 0
DILUPBiCGStab:  Solving for CO2, Initial residual = 0.00291596, Final residual = 2.22225e-09, No Iterations 3
DILUPBiCGStab:  Solving for h, Initial residual = 0.00324501, Final residual = 2.31671e-09, No Iterations 3
min/max(T) = 300, 1044.98
GAMGPCG:  Solving for p_rgh, Initial residual = 0.0190342, Final residual = 1.64378e-07, No Iterations 5
diagonal:  Solving for rho, Initial residual = 0, Final residual = 0, No Iterations 0
time step continuity errors : sum local = 1.24785e-08, global = -7.67568e-10, cumulative = -1.72944e-07
GAMGPCG:  Solving for p_rgh, Initial residual = 0.00280727, Final residual = 2.81116e-07, No Iterations 4
diagonal:  Solving for rho, Initial residual = 0, Final residual = 0, No Iterations 0
time step continuity errors : sum local = 2.00223e-08, global = 2.82048e-09, cumulative = -1.70123e-07
DILUPBiCGStab:  Solving for omega, Initial residual = 0.000122769, Final residual = 1.1737e-09, No Iterations 2
DILUPBiCGStab:  Solving for k, Initial residual = 0.00515962, Final residual = 1.84121e-09, No Iterations 3

ExecutionTime = 1.59 s  ClockTime = 1 s

    Overall     = 0.00205455, 0.01
Time = 261

diagonal:  Solving for rho, Initial residual = 0, Final residual = 0, No Iterations 0

Execution time for mesh.update() = 0 s

DILUPBiCGStab:  Solving for Ux, Initial residual = 0.00626837, Final residual = 3.34694e-09, No Iterations 3
DILUPBiCGStab:  Solving for Uy, Initial residual = 0.00820518, Final residual = 4.09996e-09, No Iterations 3
DILUPBiCGStab:  Solving for O2, Initial residual = 0.0029372, Final residual = 2.26418e-09, No Iterations 3
DILUPBiCGStab:  Solving for H2O, Initial residual = 0.0029372, Final residual = 2.26415e-09, No Iterations 3
DILUPBiCGStab:  Solving for CH4, Initial residual = 0, Final residual = 0, No Iterations 0
DILUPBiCGStab:  Solving for CO2, Initial residual = 0.0029372, Final residual = 2.26415e-09, No Iterations 3
DILUPBiCGStab:  Solving for h, Initial residual = 0.00326946, Final residual = 2.42048e-09, No Iterations 3
min/max(T) = 300, 1044.98
GAMGPCG:  Solving for p_rgh, Initial residual = 0.0193329, Final residual = 1.69602e-07, No Iterations 5
diagonal:  Solving for rho, Initial residual = 0, Final residual = 0, No Iterations 0
time step continuity errors : sum local = 1.29776e-08, global = -1.08763e-09, cumulative = -1.71211e-07
GAMGPCG:  Solving for p_rgh, Initial residual = 0.00280131, Final residual = 2.88449e-07, No Iterations 4
diagonal:  Solving for rho, Initial residual = 0, Final residual = 0, No Iterations 0
time step continuity errors : sum local = 2.0609e-08, global = 2.66203e-09, cumulative = -1.68549e-07
DILUPBiCGStab:  Solving for omega, Initial residual = 0.000120517, Final residual = 1.18673e-09, No Iterations 2
DILUPBiCGStab:  Solving for k, Initial residual = 0.00517028, Final residual = 1.94163e-09, No Iterations 3

ExecutionTime = 1.71 s  ClockTime = 2 s

    Overall     = 0.00205559, 0.01
Time = 262

diagonal:  Solving for rho, Initial residual = 0, Final residual = 0, No Iterations 0

Execution time for mesh.update() = 0 s

DILUPBiCGStab:  Solving for Ux, Initial residual = 0.00628028, Final residual = 3.29127e-09, No Iterations 3
DILUPBiCGStab:  Solving for Uy, Initial residual = 0.00818116, Final residual = 4.25627e-09, No Iterations 3
DILUPBiCGStab:  Solving for O2, Initial residual = 0.0029544, Final residual = 2.2411e-09, No Iterations 3
DILUPBiCGStab:  Solving for H2O, Initial residual = 0.0029544, Final residual = 2.24109e-09, No Iterations 3
DILUPBiCGStab:  Solving for CH4, Initial residual = 0, Final residual = 0, No Iterations 0
DILUPBiCGStab:  Solving for CO2, Initial residual = 0.0029544, Final residual = 2.24109e-09, No Iterations 3
DILUPBiCGStab:  Solving for h, Initial residual = 0.00328614, Final residual = 2.32737e-09, No Iterations 3
min/max(T) = 300, 1044.98
GAMGPCG:  Solving for p_rgh, Initial residual = 0.019053, Final residual = 1.63524e-07, No Iterations 5
diagonal:  Solving for rho, Initial residual = 0, Final residual = 0, No Iterations 0
time step continuity errors : sum local = 1.24935e-08, global = -9.98729e-10, cumulative = -1.69548e-07
GAMGPCG:  Solving for p_rgh, Initial residual = 0.0027608, Final residual = 2.86369e-07, No Iterations 4
diagonal:  Solving for rho, Initial residual = 0, Final residual = 0, No Iterations 0
time step continuity errors : sum local = 2.07838e-08, global = 2.37759e-09, cumulative = -1.6717e-07
DILUPBiCGStab:  Solving for omega, Initial residual = 0.00012203, Final residual = 1.20326e-09, No Iterations 2
DILUPBiCGStab:  Solving for k, Initial residual = 0.00519052, Final residual = 1.84955e-09, No Iterations 3

ExecutionTime = 1.83 s  ClockTime = 2 s

    Overall     = 0.00205637, 0.01
Time = 263

diagonal:  Solving for rho, Initial residual = 0, Final residual = 0, No Iterations 0

Execution time for mesh.update() = 0 s

DILUPBiCGStab:  Solving for Ux, Initial residual = 0.00629229, Final residual = 3.46204e-09, No Iterations 3
DILUPBiCGStab:  Solving for Uy, Initial residual = 0.00816261, Final residual = 4.047e-09, No Iterations 3
DILUPBiCGStab:  Solving for O2, Initial residual = 0.00297552, Final residual = 2.34687e-09, No Iterations 3
DILUPBiCGStab:  Solving for H2O, Initial residual = 0.00297552, Final residual = 2.34685e-09, No Iterations 3
DILUPBiCGStab:  Solving for CH4, Initial residual = 0, Final residual = 0, No Iterations 0
DILUPBiCGStab:  Solving for CO2, Initial residual = 0.00297552, Final residual = 2.34685e-09, No Iterations 3
DILUPBiCGStab:  Solving for h, Initial residual = 0.00331291, Final residual = 2.34333e-09, No Iterations 3
min/max(T) = 300, 1044.98
GAMGPCG:  Solving for p_rgh, Initial residual = 0.0192657, Final residual = 1.62283e-07, No Iterations 5
diagonal:  Solving for rho, Initial residual = 0, Final residual = 0, No Iterations 0
time step continuity errors : sum local = 1.23872e-08, global = -8.86935e-10, cumulative = -1.68057e-07
GAMGPCG:  Solving for p_rgh, Initial residual = 0.00276574, Final residual = 2.88376e-07, No Iterations 4
diagonal:  Solving for rho, Initial residual = 0, Final residual = 0, No Iterations 0
time step continuity errors : sum local = 2.11117e-08, global = 2.47505e-09, cumulative = -1.65582e-07
DILUPBiCGStab:  Solving for omega, Initial residual = 0.00012343, Final residual = 1.2098e-09, No Iterations 2
DILUPBiCGStab:  Solving for k, Initial residual = 0.00520764, Final residual = 2.14188e-09, No Iterations 3

ExecutionTime = 1.95 s  ClockTime = 2 s

    Overall     = 0.00205748, 0.01
Time = 264

diagonal:  Solving for rho, Initial residual = 0, Final residual = 0, No Iterations 0

Execution time for mesh.update() = 0 s

DILUPBiCGStab:  Solving for Ux, Initial residual = 0.00629493, Final residual = 3.57386e-09, No Iterations 3
DILUPBiCGStab:  Solving for Uy, Initial residual = 0.00814135, Final residual = 4.2582e-09, No Iterations 3
DILUPBiCGStab:  Solving for O2, Initial residual = 0.00299081, Final residual = 2.40359e-09, No Iterations 3
DILUPBiCGStab:  Solving for H2O, Initial residual = 0.00299082, Final residual = 2.40358e-09, No Iterations 3
DILUPBiCGStab:  Solving for CH4, Initial residual = 0, Final residual = 0, No Iterations 0
DILUPBiCGStab:  Solving for CO2, Initial residual = 0.00299082, Final residual = 2.40358e-09, No Iterations 3
DILUPBiCGStab:  Solving for h, Initial residual = 0.00333002, Final residual = 2.29522e-09, No Iterations 3
min/max(T) = 300, 1044.98
GAMGPCG:  Solving for p_rgh, Initial residual = 0.0195965, Final residual = 1.48753e-07, No Iterations 5
diagonal:  Solving for rho, Initial residual = 0, Final residual = 0, No Iterations 0
time step continuity errors : sum local = 1.13202e-08, global = -6.9827e-10, cumulative = -1.6628e-07
GAMGPCG:  Solving for p_rgh, Initial residual = 0.00278598, Final residual = 2.88599e-07, No Iterations 4
diagonal:  Solving for rho, Initial residual = 0, Final residual = 0, No Iterations 0
time step continuity errors : sum local = 2.12282e-08, global = 2.31128e-09, cumulative = -1.63969e-07
DILUPBiCGStab:  Solving for omega, Initial residual = 0.000123109, Final residual = 1.26365e-09, No Iterations 2
DILUPBiCGStab:  Solving for k, Initial residual = 0.00523178, Final residual = 2.275e-09, No Iterations 3

ExecutionTime = 2.07 s  ClockTime = 2 s

    Overall     = 0.00205797, 0.01
Time = 265

diagonal:  Solving for rho, Initial residual = 0, Final residual = 0, No Iterations 0

Execution time for mesh.update() = 0 s

DILUPBiCGStab:  Solving for Ux, Initial residual = 0.00630907, Final residual = 3.85896e-09, No Iterations 3
DILUPBiCGStab:  Solving for Uy, Initial residual = 0.00815462, Final residual = 4.22022e-09, No Iterations 3
DILUPBiCGStab:  Solving for O2, Initial residual = 0.00301502, Final residual = 2.60636e-09, No Iterations 3
DILUPBiCGStab:  Solving for H2O, Initial residual = 0.00301502, Final residual = 2.60635e-09, No Iterations 3
DILUPBiCGStab:  Solving for CH4, Initial residual = 0, Final residual = 0, No Iterations 0
DILUPBiCGStab:  Solving for CO2, Initial residual = 0.00301502, Final residual = 2.60635e-09, No Iterations 3
DILUPBiCGStab:  Solving for h, Initial residual = 0.00335379, Final residual = 2.41739e-09, No Iterations 3
min/max(T) = 300, 1044.98
GAMGPCG:  Solving for p_rgh, Initial residual = 0.0195493, Final residual = 1.58611e-07, No Iterations 5
diagonal:  Solving for rho, Initial residual = 0, Final residual = 0, No Iterations 0
time step continuity errors : sum local = 1.20355e-08, global = -8.65694e-10, cumulative = -1.64835e-07
GAMGPCG:  Solving for p_rgh, Initial residual = 0.0028732, Final residual = 2.85902e-07, No Iterations 4
diagonal:  Solving for rho, Initial residual = 0, Final residual = 0, No Iterations 0
time step continuity errors : sum local = 2.12133e-08, global = 2.43615e-09, cumulative = -1.62398e-07
DILUPBiCGStab:  Solving for omega, Initial residual = 0.000123901, Final residual = 1.27162e-09, No Iterations 2
DILUPBiCGStab:  Solving for k, Initial residual = 0.00526173, Final residual = 2.54075e-09, No Iterations 3

ExecutionTime = 2.19 s  ClockTime = 2 s

    Overall     = 0.00205886, 0.01
Time = 266

diagonal:  Solving for rho, Initial residual = 0, Final residual = 0, No Iterations 0

Execution time for mesh.update() = 0 s

DILUPBiCGStab:  Solving for Ux, Initial residual = 0.00631904, Final residual = 3.93618e-09, No Iterations 3
DILUPBiCGStab:  Solving for Uy, Initial residual = 0.00812881, Final residual = 4.35984e-09, No Iterations 3
DILUPBiCGStab:  Solving for O2, Initial residual = 0.00303556, Final residual = 2.48005e-09, No Iterations 3
DILUPBiCGStab:  Solving for H2O, Initial residual = 0.00303557, Final residual = 2.48004e-09, No Iterations 3
DILUPBiCGStab:  Solving for CH4, Initial residual = 0, Final residual = 0, No Iterations 0
DILUPBiCGStab:  Solving for CO2, Initial residual = 0.00303557, Final residual = 2.48005e-09, No Iterations 3
DILUPBiCGStab:  Solving for h, Initial residual = 0.00337484, Final residual = 2.35561e-09, No Iterations 3
min/max(T) = 300, 1044.98
GAMGPCG:  Solving for p_rgh, Initial residual = 0.019793, Final residual = 1.53681e-07, No Iterations 5
diagonal:  Solving for rho, Initial residual = 0, Final residual = 0, No Iterations 0
time step continuity errors : sum local = 1.17365e-08, global = -1.15542e-09, cumulative = -1.63554e-07
GAMGPCG:  Solving for p_rgh, Initial residual = 0.00291387, Final residual = 2.70051e-07, No Iterations 4
diagonal:  Solving for rho, Initial residual = 0, Final residual = 0, No Iterations 0
time step continuity errors : sum local = 2.01022e-08, global = 2.8493e-09, cumulative = -1.60705e-07
DILUPBiCGStab:  Solving for omega, Initial residual = 0.000124275, Final residual = 1.26869e-09, No Iterations 2
DILUPBiCGStab:  Solving for k, Initial residual = 0.00528345, Final residual = 2.87492e-09, No Iterations 3

ExecutionTime = 2.31 s  ClockTime = 2 s

    Overall     = 0.00205912, 0.01
Time = 267

diagonal:  Solving for rho, Initial residual = 0, Final residual = 0, No Iterations 0

Execution time for mesh.update() = 0 s

DILUPBiCGStab:  Solving for Ux, Initial residual = 0.00633924, Final residual = 4.03041e-09, No Iterations 3
DILUPBiCGStab:  Solving for Uy, Initial residual = 0.00815025, Final residual = 4.03613e-09, No Iterations 3
DILUPBiCGStab:  Solving for O2, Initial residual = 0.00305402, Final residual = 2.50564e-09, No Iterations 3
DILUPBiCGStab:  Solving for H2O, Initial residual = 0.00305402, Final residual = 2.50563e-09, No Iterations 3
DILUPBiCGStab:  Solving for CH4, Initial residual = 0, Final residual = 0, No Iterations 0
DILUPBiCGStab:  Solving for CO2, Initial residual = 0.00305402, Final residual = 2.50563e-09, No Iterations 3
DILUPBiCGStab:  Solving for h, Initial residual = 0.00340172, Final residual = 2.39707e-09, No Iterations 3
min/max(T) = 300, 1044.98
GAMGPCG:  Solving for p_rgh, Initial residual = 0.020181, Final residual = 1.50818e-07, No Iterations 5
diagonal:  Solving for rho, Initial residual = 0, Final residual = 0, No Iterations 0
time step continuity errors : sum local = 1.15708e-08, global = -1.39609e-09, cumulative = -1.62101e-07
GAMGPCG:  Solving for p_rgh, Initial residual = 0.0030904, Final residual = 2.76125e-07, No Iterations 4
diagonal:  Solving for rho, Initial residual = 0, Final residual = 0, No Iterations 0
time step continuity errors : sum local = 2.0609e-08, global = 3.59109e-09, cumulative = -1.5851e-07
DILUPBiCGStab:  Solving for omega, Initial residual = 0.000123611, Final residual = 1.28315e-09, No Iterations 2
DILUPBiCGStab:  Solving for k, Initial residual = 0.00530902, Final residual = 2.5799e-09, No Iterations 3

ExecutionTime = 2.43 s  ClockTime = 2 s

    Overall     = 0.00205977, 0.01
Time = 268

diagonal:  Solving for rho, Initial residual = 0, Final residual = 0, No Iterations 0

Execution time for mesh.update() = 0 s

DILUPBiCGStab:  Solving for Ux, Initial residual = 0.00636189, Final residual = 4.19219e-09, No Iterations 3
DILUPBiCGStab:  Solving for Uy, Initial residual = 0.00813352, Final residual = 4.4203e-09, No Iterations 3
DILUPBiCGStab:  Solving for O2, Initial residual = 0.00306715, Final residual = 2.48504e-09, No Iterations 3
DILUPBiCGStab:  Solving for H2O, Initial residual = 0.00306715, Final residual = 2.48503e-09, No Iterations 3
DILUPBiCGStab:  Solving for CH4, Initial residual = 0, Final residual = 0, No Iterations 0
DILUPBiCGStab:  Solving for CO2, Initial residual = 0.00306715, Final residual = 2.48503e-09, No Iterations 3
DILUPBiCGStab:  Solving for h, Initial residual = 0.00341461, Final residual = 2.39879e-09, No Iterations 3
min/max(T) = 300, 1044.98
GAMGPCG:  Solving for p_rgh, Initial residual = 0.0200493, Final residual = 1.52272e-07, No Iterations 5
diagonal:  Solving for rho, Initial residual = 0, Final residual = 0, No Iterations 0
time step continuity errors : sum local = 1.17722e-08, global = -1.77811e-09, cumulative = -1.60288e-07
GAMGPCG:  Solving for p_rgh, Initial residual = 0.00299118, Final residual = 2.90766e-07, No Iterations 4
diagonal:  Solving for rho, Initial residual = 0, Final residual = 0, No Iterations 0
time step continuity errors : sum local = 2.1735e-08, global = 3.8902e-09, cumulative = -1.56397e-07
DILUPBiCGStab:  Solving for omega, Initial residual = 0.000124719, Final residual = 1.25873e-09, No Iterations 2
DILUPBiCGStab:  Solving for k, Initial residual = 0.00534822, Final residual = 2.7059e-09, No Iterations 3

ExecutionTime = 2.55 s  ClockTime = 2 s

    Overall     = 0.00205977, 0.01
Time = 269

diagonal:  Solving for rho, Initial residual = 0, Final residual = 0, No Iterations 0

Execution time for mesh.update() = 0 s

DILUPBiCGStab:  Solving for Ux, Initial residual = 0.00636866, Final residual = 4.20524e-09, No Iterations 3
DILUPBiCGStab:  Solving for Uy, Initial residual = 0.00812073, Final residual = 4.27482e-09, No Iterations 3
DILUPBiCGStab:  Solving for O2, Initial residual = 0.00309112, Final residual = 2.50372e-09, No Iterations 3
DILUPBiCGStab:  Solving for H2O, Initial residual = 0.00309113, Final residual = 2.50372e-09, No Iterations 3
DILUPBiCGStab:  Solving for CH4, Initial residual = 0, Final residual = 0, No Iterations 0
DILUPBiCGStab:  Solving for CO2, Initial residual = 0.00309113, Final residual = 2.50372e-09, No Iterations 3
DILUPBiCGStab:  Solving for h, Initial residual = 0.00344283, Final residual = 2.3964e-09, No Iterations 3
min/max(T) = 300, 1044.98
GAMGPCG:  Solving for p_rgh, Initial residual = 0.020693, Final residual = 1.4675e-07, No Iterations 5
diagonal:  Solving for rho, Initial residual = 0, Final residual = 0, No Iterations 0
time step continuity errors : sum local = 1.13817e-08, global = -1.61942e-09, cumulative = -1.58017e-07
GAMGPCG:  Solving for p_rgh, Initial residual = 0.0030043, Final residual = 3.07082e-07, No Iterations 4
diagonal:  Solving for rho, Initial residual = 0, Final residual = 0, No Iterations 0
time step continuity errors : sum local = 2.30004e-08, global = 3.84534e-09, cumulative = -1.54171e-07
DILUPBiCGStab:  Solving for omega, Initial residual = 0.000125077, Final residual = 1.28214e-09, No Iterations 2
DILUPBiCGStab:  Solving for k, Initial residual = 0.00537489, Final residual = 2.7944e-09, No Iterations 3

ExecutionTime = 2.67 s  ClockTime = 3 s

    Overall     = 0.00206021, 0.01
Time = 270

diagonal:  Solving for rho, Initial residual = 0, Final residual = 0, No Iterations 0

Execution time for mesh.update() = 0 s

DILUPBiCGStab:  Solving for Ux, Initial residual = 0.00640825, Final residual = 4.36669e-09, No Iterations 3
DILUPBiCGStab:  Solving for Uy, Initial residual = 0.00811486, Final residual = 4.63603e-09, No Iterations 3
GAMGPCG:  Solving for G, Initial residual = 0.148617, Final residual = 7.49555e-05, No Iterations 5
DILUPBiCGStab:  Solving for O2, Initial residual = 0.00311115, Final residual = 2.54613e-09, No Iterations 3
DILUPBiCGStab:  Solving for H2O, Initial residual = 0.00311115, Final residual = 2.54612e-09, No Iterations 3
DILUPBiCGStab:  Solving for CH4, Initial residual = 0, Final residual = 0, No Iterations 0
DILUPBiCGStab:  Solving for CO2, Initial residual = 0.00311115, Final residual = 2.54612e-09, No Iterations 3
DILUPBiCGStab:  Solving for h, Initial residual = 0.00346131, Final residual = 2.40659e-09, No Iterations 3
min/max(T) = 300, 1044.98
GAMGPCG:  Solving for p_rgh, Initial residual = 0.0211556, Final residual = 1.50558e-07, No Iterations 5
diagonal:  Solving for rho, Initial residual = 0, Final residual = 0, No Iterations 0
time step continuity errors : sum local = 1.17948e-08, global = -2.20026e-09, cumulative = -1.56372e-07
GAMGPCG:  Solving for p_rgh, Initial residual = 0.00301547, Final residual = 3.33658e-07, No Iterations 4
diagonal:  Solving for rho, Initial residual = 0, Final residual = 0, No Iterations 0
time step continuity errors : sum local = 2.51032e-08, global = 4.04234e-09, cumulative = -1.52329e-07
DILUPBiCGStab:  Solving for omega, Initial residual = 0.00012439, Final residual = 1.25419e-09, No Iterations 2
DILUPBiCGStab:  Solving for k, Initial residual = 0.00540155, Final residual = 2.93645e-09, No Iterations 3

ExecutionTime = 2.92 s  ClockTime = 3 s

    Overall     = 0.00205998, 0.01
Time = 271

diagonal:  Solving for rho, Initial residual = 0, Final residual = 0, No Iterations 0

Execution time for mesh.update() = 0 s

DILUPBiCGStab:  Solving for Ux, Initial residual = 0.00642638, Final residual = 4.21954e-09, No Iterations 3
DILUPBiCGStab:  Solving for Uy, Initial residual = 0.00812834, Final residual = 4.45863e-09, No Iterations 3
DILUPBiCGStab:  Solving for O2, Initial residual = 0.00313348, Final residual = 2.59376e-09, No Iterations 3
DILUPBiCGStab:  Solving for H2O, Initial residual = 0.00313349, Final residual = 2.59376e-09, No Iterations 3
DILUPBiCGStab:  Solving for CH4, Initial residual = 0, Final residual = 0, No Iterations 0
DILUPBiCGStab:  Solving for CO2, Initial residual = 0.00313349, Final residual = 2.59376e-09, No Iterations 3
DILUPBiCGStab:  Solving for h, Initial residual = 0.00348935, Final residual = 2.41197e-09, No Iterations 3
min/max(T) = 300, 1044.98
GAMGPCG:  Solving for p_rgh, Initial residual = 0.0214694, Final residual = 1.75027e-07, No Iterations 5
diagonal:  Solving for rho, Initial residual = 0, Final residual = 0, No Iterations 0
time step continuity errors : sum local = 1.38666e-08, global = -3.47124e-09, cumulative = -1.55801e-07
GAMGPCG:  Solving for p_rgh, Initial residual = 0.0030767, Final residual = 3.87243e-07, No Iterations 4
diagonal:  Solving for rho, Initial residual = 0, Final residual = 0, No Iterations 0
time step continuity errors : sum local = 2.89706e-08, global = 3.91064e-09, cumulative = -1.5189e-07
DILUPBiCGStab:  Solving for omega, Initial residual = 0.000126011, Final residual = 1.22607e-09, No Iterations 2
DILUPBiCGStab:  Solving for k, Initial residual = 0.0054515, Final residual = 3.31453e-09, No Iterations 3

ExecutionTime = 3.04 s  ClockTime = 3 s

    Overall     = 0.00206029, 0.01
Time = 272

diagonal:  Solving for rho, Initial residual = 0, Final residual = 0, No Iterations 0

Execution time for mesh.update() = 0 s

DILUPBiCGStab:  Solving for Ux, Initial residual = 0.00643705, Final residual = 4.39713e-09, No Iterations 3
DILUPBiCGStab:  Solving for Uy, Initial residual = 0.00812793, Final residual = 4.6476e-09, No Iterations 3
DILUPBiCGStab:  Solving for O2, Initial residual = 0.00315753, Final residual = 2.63029e-09, No Iterations 3
DILUPBiCGStab:  Solving for H2O, Initial residual = 0.00315754, Final residual = 2.63028e-09, No Iterations 3
DILUPBiCGStab:  Solving for CH4, Initial residual = 0, Final residual = 0, No Iterations 0
DILUPBiCGStab:  Solving for CO2, Initial residual = 0.00315754, Final residual = 2.63028e-09, No Iterations 3
DILUPBiCGStab:  Solving for h, Initial residual = 0.00351777, Final residual = 2.42769e-09, No Iterations 3
min/max(T) = 300, 1044.98
GAMGPCG:  Solving for p_rgh, Initial residual = 0.0217171, Final residual = 1.96296e-07, No Iterations 5
diagonal:  Solving for rho, Initial residual = 0, Final residual = 0, No Iterations 0
time step continuity errors : sum local = 1.55127e-08, global = -3.42306e-09, cumulative = -1.55313e-07
GAMGPCG:  Solving for p_rgh, Initial residual = 0.00303894, Final residual = 4.0196e-07, No Iterations 4
diagonal:  Solving for rho, Initial residual = 0, Final residual = 0, No Iterations 0
time step continuity errors : sum local = 3.02222e-08, global = 3.55832e-09, cumulative = -1.51755e-07
DILUPBiCGStab:  Solving for omega, Initial residual = 0.000125301, Final residual = 1.1642e-09, No Iterations 2
DILUPBiCGStab:  Solving for k, Initial residual = 0.00548205, Final residual = 3.43236e-09, No Iterations 3

ExecutionTime = 3.16 s  ClockTime = 3 s

    Overall     = 0.00205987, 0.01
Time = 273

diagonal:  Solving for rho, Initial residual = 0, Final residual = 0, No Iterations 0

Execution time for mesh.update() = 0 s

DILUPBiCGStab:  Solving for Ux, Initial residual = 0.00646761, Final residual = 4.34436e-09, No Iterations 3
DILUPBiCGStab:  Solving for Uy, Initial residual = 0.00812887, Final residual = 4.76472e-09, No Iterations 3
DILUPBiCGStab:  Solving for O2, Initial residual = 0.00318438, Final residual = 2.70118e-09, No Iterations 3
DILUPBiCGStab:  Solving for H2O, Initial residual = 0.00318439, Final residual = 2.70118e-09, No Iterations 3
DILUPBiCGStab:  Solving for CH4, Initial residual = 0, Final residual = 0, No Iterations 0
DILUPBiCGStab:  Solving for CO2, Initial residual = 0.00318439, Final residual = 2.70118e-09, No Iterations 3
DILUPBiCGStab:  Solving for h, Initial residual = 0.00354847, Final residual = 2.46711e-09, No Iterations 3
min/max(T) = 300, 1044.98
GAMGPCG:  Solving for p_rgh, Initial residual = 0.021793, Final residual = 2.19632e-07, No Iterations 5
diagonal:  Solving for rho, Initial residual = 0, Final residual = 0, No Iterations 0
time step continuity errors : sum local = 1.71816e-08, global = -3.82613e-09, cumulative = -1.55581e-07
GAMGPCG:  Solving for p_rgh, Initial residual = 0.00305826, Final residual = 4.35515e-07, No Iterations 4
diagonal:  Solving for rho, Initial residual = 0, Final residual = 0, No Iterations 0
time step continuity errors : sum local = 3.25412e-08, global = 3.42995e-09, cumulative = -1.52151e-07
DILUPBiCGStab:  Solving for omega, Initial residual = 0.000125952, Final residual = 1.15069e-09, No Iterations 2
DILUPBiCGStab:  Solving for k, Initial residual = 0.00552389, Final residual = 3.38949e-09, No Iterations 3

ExecutionTime = 3.28 s  ClockTime = 3 s

    Overall     = 0.00206005, 0.01
Time = 274

diagonal:  Solving for rho, Initial residual = 0, Final residual = 0, No Iterations 0

Execution time for mesh.update() = 0 s

DILUPBiCGStab:  Solving for Ux, Initial residual = 0.00647349, Final residual = 4.4143e-09, No Iterations 3
DILUPBiCGStab:  Solving for Uy, Initial residual = 0.00811723, Final residual = 4.91178e-09, No Iterations 3
DILUPBiCGStab:  Solving for O2, Initial residual = 0.00320799, Final residual = 2.78542e-09, No Iterations 3
DILUPBiCGStab:  Solving for H2O, Initial residual = 0.003208, Final residual = 2.78542e-09, No Iterations 3
DILUPBiCGStab:  Solving for CH4, Initial residual = 0, Final residual = 0, No Iterations 0
DILUPBiCGStab:  Solving for CO2, Initial residual = 0.003208, Final residual = 2.78541e-09, No Iterations 3
DILUPBiCGStab:  Solving for h, Initial residual = 0.0035765, Final residual = 2.49674e-09, No Iterations 3
min/max(T) = 300, 1044.98
GAMGPCG:  Solving for p_rgh, Initial residual = 0.021771, Final residual = 2.70157e-07, No Iterations 5
diagonal:  Solving for rho, Initial residual = 0, Final residual = 0, No Iterations 0
time step continuity errors : sum local = 2.10512e-08, global = -3.85607e-09, cumulative = -1.56007e-07
GAMGPCG:  Solving for p_rgh, Initial residual = 0.00303979, Final residual = 4.80161e-07, No Iterations 4
diagonal:  Solving for rho, Initial residual = 0, Final residual = 0, No Iterations 0
time step continuity errors : sum local = 3.6064e-08, global = 3.97645e-09, cumulative = -1.52031e-07
DILUPBiCGStab:  Solving for omega, Initial residual = 0.000125914, Final residual = 1.10271e-09, No Iterations 2
DILUPBiCGStab:  Solving for k, Initial residual = 0.00557443, Final residual = 3.25326e-09, No Iterations 3

ExecutionTime = 3.4 s  ClockTime = 3 s

    Overall     = 0.0020595, 0.01
Time = 275

diagonal:  Solving for rho, Initial residual = 0, Final residual = 0, No Iterations 0

Execution time for mesh.update() = 0 s

DILUPBiCGStab:  Solving for Ux, Initial residual = 0.00648796, Final residual = 4.33408e-09, No Iterations 3
DILUPBiCGStab:  Solving for Uy, Initial residual = 0.00809279, Final residual = 4.72089e-09, No Iterations 3
DILUPBiCGStab:  Solving for O2, Initial residual = 0.00323996, Final residual = 2.99377e-09, No Iterations 3
DILUPBiCGStab:  Solving for H2O, Initial residual = 0.00323997, Final residual = 2.99376e-09, No Iterations 3
DILUPBiCGStab:  Solving for CH4, Initial residual = 0, Final residual = 0, No Iterations 0
DILUPBiCGStab:  Solving for CO2, Initial residual = 0.00323997, Final residual = 2.99376e-09, No Iterations 3
DILUPBiCGStab:  Solving for h, Initial residual = 0.00360917, Final residual = 2.67963e-09, No Iterations 3
min/max(T) = 300, 1044.98
GAMGPCG:  Solving for p_rgh, Initial residual = 0.0225019, Final residual = 2.3398e-07, No Iterations 5
diagonal:  Solving for rho, Initial residual = 0, Final residual = 0, No Iterations 0
time step continuity errors : sum local = 1.83782e-08, global = -4.67949e-09, cumulative = -1.5671e-07
GAMGPCG:  Solving for p_rgh, Initial residual = 0.00307036, Final residual = 4.52548e-07, No Iterations 4
diagonal:  Solving for rho, Initial residual = 0, Final residual = 0, No Iterations 0
time step continuity errors : sum local = 3.40742e-08, global = 4.11738e-09, cumulative = -1.52593e-07
DILUPBiCGStab:  Solving for omega, Initial residual = 0.000127355, Final residual = 1.10875e-09, No Iterations 2
DILUPBiCGStab:  Solving for k, Initial residual = 0.00561704, Final residual = 2.71462e-09, No Iterations 3

ExecutionTime = 3.52 s  ClockTime = 3 s

    Overall     = 0.0020596, 0.01
Time = 276

diagonal:  Solving for rho, Initial residual = 0, Final residual = 0, No Iterations 0

Execution time for mesh.update() = 0 s

DILUPBiCGStab:  Solving for Ux, Initial residual = 0.00653918, Final residual = 4.36952e-09, No Iterations 3
DILUPBiCGStab:  Solving for Uy, Initial residual = 0.00810514, Final residual = 4.74787e-09, No Iterations 3
DILUPBiCGStab:  Solving for O2, Initial residual = 0.00326149, Final residual = 4.08799e-09, No Iterations 3
DILUPBiCGStab:  Solving for H2O, Initial residual = 0.0032615, Final residual = 4.08796e-09, No Iterations 3
DILUPBiCGStab:  Solving for CH4, Initial residual = 0, Final residual = 0, No Iterations 0
DILUPBiCGStab:  Solving for CO2, Initial residual = 0.0032615, Final residual = 4.08795e-09, No Iterations 3
DILUPBiCGStab:  Solving for h, Initial residual = 0.00364299, Final residual = 3.51215e-09, No Iterations 3
min/max(T) = 300, 1044.98
GAMGPCG:  Solving for p_rgh, Initial residual = 0.0230244, Final residual = 2.83103e-07, No Iterations 5
diagonal:  Solving for rho, Initial residual = 0, Final residual = 0, No Iterations 0
time step continuity errors : sum local = 2.2131e-08, global = -3.33624e-09, cumulative = -1.55929e-07
GAMGPCG:  Solving for p_rgh, Initial residual = 0.00309338, Final residual = 4.11332e-07, No Iterations 4
diagonal:  Solving for rho, Initial residual = 0, Final residual = 0, No Iterations 0
time step continuity errors : sum local = 3.09509e-08, global = 3.7079e-09, cumulative = -1.52221e-07
DILUPBiCGStab:  Solving for omega, Initial residual = 0.000128561, Final residual = 1.04939e-09, No Iterations 2
DILUPBiCGStab:  Solving for k, Initial residual = 0.00566289, Final residual = 2.73451e-09, No Iterations 3

ExecutionTime = 3.63 s  ClockTime = 4 s

    Overall     = 0.0020589, 0.01
Time = 277

diagonal:  Solving for rho, Initial residual = 0, Final residual = 0, No Iterations 0

Execution time for mesh.update() = 0 s

DILUPBiCGStab:  Solving for Ux, Initial residual = 0.00658721, Final residual = 4.38952e-09, No Iterations 3
DILUPBiCGStab:  Solving for Uy, Initial residual = 0.00812131, Final residual = 4.98479e-09, No Iterations 3
DILUPBiCGStab:  Solving for O2, Initial residual = 0.00329127, Final residual = 5.64674e-09, No Iterations 3
DILUPBiCGStab:  Solving for H2O, Initial residual = 0.00329127, Final residual = 5.64667e-09, No Iterations 3
DILUPBiCGStab:  Solving for CH4, Initial residual = 0, Final residual = 0, No Iterations 0
DILUPBiCGStab:  Solving for CO2, Initial residual = 0.00329127, Final residual = 5.64666e-09, No Iterations 3
DILUPBiCGStab:  Solving for h, Initial residual = 0.00367011, Final residual = 5.22044e-09, No Iterations 3
min/max(T) = 300, 1044.98
GAMGPCG:  Solving for p_rgh, Initial residual = 0.023529, Final residual = 2.72892e-07, No Iterations 5
diagonal:  Solving for rho, Initial residual = 0, Final residual = 0, No Iterations 0
time step continuity errors : sum local = 2.1298e-08, global = -4.4066e-09, cumulative = -1.56628e-07
GAMGPCG:  Solving for p_rgh, Initial residual = 0.00323099, Final residual = 4.43886e-07, No Iterations 4
diagonal:  Solving for rho, Initial residual = 0, Final residual = 0, No Iterations 0
time step continuity errors : sum local = 3.33528e-08, global = 4.26458e-09, cumulative = -1.52363e-07
DILUPBiCGStab:  Solving for omega, Initial residual = 0.00012878, Final residual = 1.08037e-09, No Iterations 2
DILUPBiCGStab:  Solving for k, Initial residual = 0.00572557, Final residual = 2.59537e-09, No Iterations 3

ExecutionTime = 3.75 s  ClockTime = 4 s

    Overall     = 0.00205892, 0.01
Time = 278

diagonal:  Solving for rho, Initial residual = 0, Final residual = 0, No Iterations 0

Execution time for mesh.update() = 0 s

DILUPBiCGStab:  Solving for Ux, Initial residual = 0.00662654, Final residual = 4.43536e-09, No Iterations 3
DILUPBiCGStab:  Solving for Uy, Initial residual = 0.00812509, Final residual = 5.15642e-09, No Iterations 3
DILUPBiCGStab:  Solving for O2, Initial residual = 0.00331338, Final residual = 8.47522e-09, No Iterations 3
DILUPBiCGStab:  Solving for H2O, Initial residual = 0.00331338, Final residual = 8.47506e-09, No Iterations 3
DILUPBiCGStab:  Solving for CH4, Initial residual = 0, Final residual = 0, No Iterations 0
DILUPBiCGStab:  Solving for CO2, Initial residual = 0.00331338, Final residual = 8.47503e-09, No Iterations 3
DILUPBiCGStab:  Solving for h, Initial residual = 0.0036989, Final residual = 9.18866e-09, No Iterations 3
min/max(T) = 300, 1044.98
GAMGPCG:  Solving for p_rgh, Initial residual = 0.0234914, Final residual = 2.84982e-07, No Iterations 5
diagonal:  Solving for rho, Initial residual = 0, Final residual = 0, No Iterations 0
time step continuity errors : sum local = 2.23312e-08, global = -4.93816e-09, cumulative = -1.57301e-07
GAMGPCG:  Solving for p_rgh, Initial residual = 0.0034284, Final residual = 4.19349e-07, No Iterations 4
diagonal:  Solving for rho, Initial residual = 0, Final residual = 0, No Iterations 0
time step continuity errors : sum local = 3.17141e-08, global = 4.86425e-09, cumulative = -1.52437e-07
DILUPBiCGStab:  Solving for omega, Initial residual = 0.000130546, Final residual = 1.06681e-09, No Iterations 2
DILUPBiCGStab:  Solving for k, Initial residual = 0.00580355, Final residual = 2.32962e-09, No Iterations 3

ExecutionTime = 3.87 s  ClockTime = 4 s

    Overall     = 0.00205811, 0.01
Time = 279

diagonal:  Solving for rho, Initial residual = 0, Final residual = 0, No Iterations 0

Execution time for mesh.update() = 0 s

DILUPBiCGStab:  Solving for Ux, Initial residual = 0.00666812, Final residual = 4.33365e-09, No Iterations 3
DILUPBiCGStab:  Solving for Uy, Initial residual = 0.00810746, Final residual = 5.36415e-09, No Iterations 3
DILUPBiCGStab:  Solving for O2, Initial residual = 0.00333541, Final residual = 7.09376e-09, No Iterations 3
DILUPBiCGStab:  Solving for H2O, Initial residual = 0.00333541, Final residual = 7.09363e-09, No Iterations 3
DILUPBiCGStab:  Solving for CH4, Initial residual = 0, Final residual = 0, No Iterations 0
DILUPBiCGStab:  Solving for CO2, Initial residual = 0.00333541, Final residual = 7.0936e-09, No Iterations 3
DILUPBiCGStab:  Solving for h, Initial residual = 0.00372281, Final residual = 8.17003e-09, No Iterations 3
min/max(T) = 300, 1044.98
GAMGPCG:  Solving for p_rgh, Initial residual = 0.0242058, Final residual = 2.98041e-07, No Iterations 5
diagonal:  Solving for rho, Initial residual = 0, Final residual = 0, No Iterations 0
time step continuity errors : sum local = 2.33043e-08, global = -5.2926e-09, cumulative = -1.5773e-07
GAMGPCG:  Solving for p_rgh, Initial residual = 0.00338826, Final residual = 4.20094e-07, No Iterations 4
diagonal:  Solving for rho, Initial residual = 0, Final residual = 0, No Iterations 0
time step continuity errors : sum local = 3.17901e-08, global = 5.04478e-09, cumulative = -1.52685e-07
DILUPBiCGStab:  Solving for omega, Initial residual = 0.00013147, Final residual = 1.10547e-09, No Iterations 2
DILUPBiCGStab:  Solving for k, Initial residual = 0.00588605, Final residual = 2.37668e-09, No Iterations 3

ExecutionTime = 3.99 s  ClockTime = 4 s

    Overall     = 0.002058, 0.01
Time = 280

diagonal:  Solving for rho, Initial residual = 0, Final residual = 0, No Iterations 0

Execution time for mesh.update() = 0 s

DILUPBiCGStab:  Solving for Ux, Initial residual = 0.0067149, Final residual = 4.35995e-09, No Iterations 3
DILUPBiCGStab:  Solving for Uy, Initial residual = 0.00809381, Final residual = 5.31467e-09, No Iterations 3
GAMGPCG:  Solving for G, Initial residual = 0.168434, Final residual = 4.45856e-05, No Iterations 8
DILUPBiCGStab:  Solving for O2, Initial residual = 0.00336565, Final residual = 7.90427e-09, No Iterations 3
DILUPBiCGStab:  Solving for H2O, Initial residual = 0.00336565, Final residual = 7.9041e-09, No Iterations 3
DILUPBiCGStab:  Solving for CH4, Initial residual = 0, Final residual = 0, No Iterations 0
DILUPBiCGStab:  Solving for CO2, Initial residual = 0.00336565, Final residual = 7.90407e-09, No Iterations 3
DILUPBiCGStab:  Solving for h, Initial residual = 0.00375907, Final residual = 9.90741e-10, No Iterations 3
min/max(T) = 300, 1044.98
GAMGPCG:  Solving for p_rgh, Initial residual = 0.0243389, Final residual = 2.32146e-07, No Iterations 5
diagonal:  Solving for rho, Initial residual = 0, Final residual = 0, No Iterations 0
time step continuity errors : sum local = 1.83591e-08, global = -5.29853e-09, cumulative = -1.57983e-07
GAMGPCG:  Solving for p_rgh, Initial residual = 0.00340291, Final residual = 3.96162e-07, No Iterations 4
diagonal:  Solving for rho, Initial residual = 0, Final residual = 0, No Iterations 0
time step continuity errors : sum local = 2.98849e-08, global = 4.93083e-09, cumulative = -1.53052e-07
DILUPBiCGStab:  Solving for omega, Initial residual = 0.000130039, Final residual = 1.09878e-09, No Iterations 2
DILUPBiCGStab:  Solving for k, Initial residual = 0.00596038, Final residual = 2.35138e-09, No Iterations 3

ExecutionTime = 4.25 s  ClockTime = 4 s

    Overall     = 0.00205711, 0.01
Time = 281

diagonal:  Solving for rho, Initial residual = 0, Final residual = 0, No Iterations 0

Execution time for mesh.update() = 0 s

DILUPBiCGStab:  Solving for Ux, Initial residual = 0.00676323, Final residual = 4.01592e-09, No Iterations 3
DILUPBiCGStab:  Solving for Uy, Initial residual = 0.00807926, Final residual = 5.29914e-09, No Iterations 3
DILUPBiCGStab:  Solving for O2, Initial residual = 0.00337796, Final residual = 5.68178e-09, No Iterations 3
DILUPBiCGStab:  Solving for H2O, Initial residual = 0.00337797, Final residual = 5.68167e-09, No Iterations 3
DILUPBiCGStab:  Solving for CH4, Initial residual = 0, Final residual = 0, No Iterations 0
DILUPBiCGStab:  Solving for CO2, Initial residual = 0.00337797, Final residual = 5.68166e-09, No Iterations 3
DILUPBiCGStab:  Solving for h, Initial residual = 0.00377155, Final residual = 7.09119e-09, No Iterations 3
min/max(T) = 299.999, 1044.98
GAMGPCG:  Solving for p_rgh, Initial residual = 0.0235468, Final residual = 2.27824e-07, No Iterations 5
diagonal:  Solving for rho, Initial residual = 0, Final residual = 0, No Iterations 0
time step continuity errors : sum local = 1.8094e-08, global = -4.74764e-09, cumulative = -1.578e-07
GAMGPCG:  Solving for p_rgh, Initial residual = 0.0035432, Final residual = 3.70469e-07, No Iterations 4
diagonal:  Solving for rho, Initial residual = 0, Final residual = 0, No Iterations 0
time step continuity errors : sum local = 2.81083e-08, global = 4.63727e-09, cumulative = -1.53163e-07
DILUPBiCGStab:  Solving for omega, Initial residual = 0.000131745, Final residual = 1.18392e-09, No Iterations 2
DILUPBiCGStab:  Solving for k, Initial residual = 0.00603751, Final residual = 2.72105e-09, No Iterations 3

ExecutionTime = 4.37 s  ClockTime = 4 s

    Overall     = 0.00205689, 0.01
Time = 282

diagonal:  Solving for rho, Initial residual = 0, Final residual = 0, No Iterations 0

Execution time for mesh.update() = 0 s

DILUPBiCGStab:  Solving for Ux, Initial residual = 0.00676401, Final residual = 4.09613e-09, No Iterations 3
DILUPBiCGStab:  Solving for Uy, Initial residual = 0.00799896, Final residual = 5.07195e-09, No Iterations 3
DILUPBiCGStab:  Solving for O2, Initial residual = 0.00339842, Final residual = 5.08537e-09, No Iterations 3
DILUPBiCGStab:  Solving for H2O, Initial residual = 0.00339843, Final residual = 5.08527e-09, No Iterations 3
DILUPBiCGStab:  Solving for CH4, Initial residual = 0, Final residual = 0, No Iterations 0
DILUPBiCGStab:  Solving for CO2, Initial residual = 0.00339843, Final residual = 5.08525e-09, No Iterations 3
DILUPBiCGStab:  Solving for h, Initial residual = 0.00379852, Final residual = 6.76947e-09, No Iterations 3
min/max(T) = 299.988, 1044.98
GAMGPCG:  Solving for p_rgh, Initial residual = 0.0239587, Final residual = 2.13212e-07, No Iterations 5
diagonal:  Solving for rho, Initial residual = 0, Final residual = 0, No Iterations 0
time step continuity errors : sum local = 1.69113e-08, global = -4.41324e-09, cumulative = -1.57576e-07
GAMGPCG:  Solving for p_rgh, Initial residual = 0.00334815, Final residual = 4.05456e-07, No Iterations 4
diagonal:  Solving for rho, Initial residual = 0, Final residual = 0, No Iterations 0
time step continuity errors : sum local = 3.04277e-08, global = 4.5114e-09, cumulative = -1.53065e-07
DILUPBiCGStab:  Solving for omega, Initial residual = 0.000133663, Final residual = 1.15149e-09, No Iterations 2
DILUPBiCGStab:  Solving for k, Initial residual = 0.00610511, Final residual = 4.23953e-09, No Iterations 3

ExecutionTime = 4.49 s  ClockTime = 4 s

    Overall     = 0.00205605, 0.01
Time = 283

diagonal:  Solving for rho, Initial residual = 0, Final residual = 0, No Iterations 0

Execution time for mesh.update() = 0 s

DILUPBiCGStab:  Solving for Ux, Initial residual = 0.00682451, Final residual = 3.92388e-09, No Iterations 3
DILUPBiCGStab:  Solving for Uy, Initial residual = 0.00800805, Final residual = 4.84179e-09, No Iterations 3
DILUPBiCGStab:  Solving for O2, Initial residual = 0.00342047, Final residual = 4.48078e-09, No Iterations 3
DILUPBiCGStab:  Solving for H2O, Initial residual = 0.00342049, Final residual = 4.4807e-09, No Iterations 3
DILUPBiCGStab:  Solving for CH4, Initial residual = 0, Final residual = 0, No Iterations 0
DILUPBiCGStab:  Solving for CO2, Initial residual = 0.00342049, Final residual = 4.48069e-09, No Iterations 3
DILUPBiCGStab:  Solving for h, Initial residual = 0.00382293, Final residual = 6.54334e-09, No Iterations 3
min/max(T) = 299.984, 1044.98
GAMGPCG:  Solving for p_rgh, Initial residual = 0.0245491, Final residual = 1.98176e-07, No Iterations 5
diagonal:  Solving for rho, Initial residual = 0, Final residual = 0, No Iterations 0
time step continuity errors : sum local = 1.56502e-08, global = -3.3871e-09, cumulative = -1.56452e-07
GAMGPCG:  Solving for p_rgh, Initial residual = 0.00353116, Final residual = 3.41122e-07, No Iterations 4
diagonal:  Solving for rho, Initial residual = 0, Final residual = 0, No Iterations 0
time step continuity errors : sum local = 2.56753e-08, global = 3.10275e-09, cumulative = -1.53349e-07
DILUPBiCGStab:  Solving for omega, Initial residual = 0.00013227, Final residual = 1.23837e-09, No Iterations 2
DILUPBiCGStab:  Solving for k, Initial residual = 0.00616745, Final residual = 3.96798e-09, No Iterations 3

ExecutionTime = 4.61 s  ClockTime = 5 s

    Overall     = 0.00205561, 0.01
Time = 284

diagonal:  Solving for rho, Initial residual = 0, Final residual = 0, No Iterations 0

Execution time for mesh.update() = 0 s

DILUPBiCGStab:  Solving for Ux, Initial residual = 0.00688858, Final residual = 4.3652e-09, No Iterations 3
DILUPBiCGStab:  Solving for Uy, Initial residual = 0.00796993, Final residual = 4.94744e-09, No Iterations 3
DILUPBiCGStab:  Solving for O2, Initial residual = 0.00343773, Final residual = 3.75714e-09, No Iterations 3
DILUPBiCGStab:  Solving for H2O, Initial residual = 0.00343775, Final residual = 3.7571e-09, No Iterations 3
DILUPBiCGStab:  Solving for CH4, Initial residual = 0, Final residual = 0, No Iterations 0
DILUPBiCGStab:  Solving for CO2, Initial residual = 0.00343775, Final residual = 3.7571e-09, No Iterations 3
DILUPBiCGStab:  Solving for h, Initial residual = 0.00384115, Final residual = 4.91206e-09, No Iterations 3
min/max(T) = 299.975, 1044.98
GAMGPCG:  Solving for p_rgh, Initial residual = 0.0239749, Final residual = 2.12687e-07, No Iterations 5
diagonal:  Solving for rho, Initial residual = 0, Final residual = 0, No Iterations 0
time step continuity errors : sum local = 1.68529e-08, global = -4.4721e-09, cumulative = -1.57821e-07
GAMGPCG:  Solving for p_rgh, Initial residual = 0.00363349, Final residual = 3.91354e-07, No Iterations 4
diagonal:  Solving for rho, Initial residual = 0, Final residual = 0, No Iterations 0
time step continuity errors : sum local = 2.91111e-08, global = 4.18013e-09, cumulative = -1.53641e-07
DILUPBiCGStab:  Solving for omega, Initial residual = 0.000133308, Final residual = 1.28042e-09, No Iterations 2
DILUPBiCGStab:  Solving for k, Initial residual = 0.00621593, Final residual = 5.17175e-09, No Iterations 3

ExecutionTime = 4.73 s  ClockTime = 5 s

    Overall     = 0.0020549, 0.01
Time = 285

diagonal:  Solving for rho, Initial residual = 0, Final residual = 0, No Iterations 0

Execution time for mesh.update() = 0 s

DILUPBiCGStab:  Solving for Ux, Initial residual = 0.00688007, Final residual = 4.42663e-09, No Iterations 3
DILUPBiCGStab:  Solving for Uy, Initial residual = 0.0079143, Final residual = 4.63287e-09, No Iterations 3
DILUPBiCGStab:  Solving for O2, Initial residual = 0.00345637, Final residual = 3.43669e-09, No Iterations 3
DILUPBiCGStab:  Solving for H2O, Initial residual = 0.0034564, Final residual = 3.43666e-09, No Iterations 3
DILUPBiCGStab:  Solving for CH4, Initial residual = 0, Final residual = 0, No Iterations 0
DILUPBiCGStab:  Solving for CO2, Initial residual = 0.0034564, Final residual = 3.43666e-09, No Iterations 3
DILUPBiCGStab:  Solving for h, Initial residual = 0.00386916, Final residual = 3.98991e-09, No Iterations 3
min/max(T) = 299.972, 1044.98
GAMGPCG:  Solving for p_rgh, Initial residual = 0.0238243, Final residual = 1.79648e-07, No Iterations 5
diagonal:  Solving for rho, Initial residual = 0, Final residual = 0, No Iterations 0
time step continuity errors : sum local = 1.42209e-08, global = -3.45344e-09, cumulative = -1.57094e-07
GAMGPCG:  Solving for p_rgh, Initial residual = 0.00334514, Final residual = 3.86942e-07, No Iterations 4
diagonal:  Solving for rho, Initial residual = 0, Final residual = 0, No Iterations 0
time step continuity errors : sum local = 2.89838e-08, global = 3.36511e-09, cumulative = -1.53729e-07
DILUPBiCGStab:  Solving for omega, Initial residual = 0.000132028, Final residual = 1.40381e-09, No Iterations 2
DILUPBiCGStab:  Solving for k, Initial residual = 0.00628487, Final residual = 1.08319e-09, No Iterations 3

ExecutionTime = 4.85 s  ClockTime = 5 s

    Overall     = 0.00205415, 0.01
Time = 286

diagonal:  Solving for rho, Initial residual = 0, Final residual = 0, No Iterations 0

Execution time for mesh.update() = 0 s

DILUPBiCGStab:  Solving for Ux, Initial residual = 0.00692602, Final residual = 4.77804e-09, No Iterations 3
DILUPBiCGStab:  Solving for Uy, Initial residual = 0.00789183, Final residual = 4.82239e-09, No Iterations 3
DILUPBiCGStab:  Solving for O2, Initial residual = 0.00346906, Final residual = 2.98192e-09, No Iterations 3
DILUPBiCGStab:  Solving for H2O, Initial residual = 0.00346909, Final residual = 2.9819e-09, No Iterations 3
DILUPBiCGStab:  Solving for CH4, Initial residual = 0, Final residual = 0, No Iterations 0
DILUPBiCGStab:  Solving for CO2, Initial residual = 0.00346909, Final residual = 2.9819e-09, No Iterations 3
DILUPBiCGStab:  Solving for h, Initial residual = 0.00388514, Final residual = 2.9905e-09, No Iterations 3
min/max(T) = 299.963, 1044.98
GAMGPCG:  Solving for p_rgh, Initial residual = 0.024295, Final residual = 1.96024e-07, No Iterations 5
diagonal:  Solving for rho, Initial residual = 0, Final residual = 0, No Iterations 0
time step continuity errors : sum local = 1.54005e-08, global = -3.72586e-09, cumulative = -1.57455e-07
GAMGPCG:  Solving for p_rgh, Initial residual = 0.00352405, Final residual = 3.61124e-07, No Iterations 4
diagonal:  Solving for rho, Initial residual = 0, Final residual = 0, No Iterations 0
time step continuity errors : sum local = 2.71272e-08, global = 3.22082e-09, cumulative = -1.54234e-07
DILUPBiCGStab:  Solving for omega, Initial residual = 0.000132757, Final residual = 1.39235e-09, No Iterations 2
DILUPBiCGStab:  Solving for k, Initial residual = 0.0063538, Final residual = 3.13165e-09, No Iterations 3

ExecutionTime = 4.97 s  ClockTime = 5 s

    Overall     = 0.00205335, 0.01
Time = 287

diagonal:  Solving for rho, Initial residual = 0, Final residual = 0, No Iterations 0

Execution time for mesh.update() = 0 s

DILUPBiCGStab:  Solving for Ux, Initial residual = 0.00693789, Final residual = 5.07421e-09, No Iterations 3
DILUPBiCGStab:  Solving for Uy, Initial residual = 0.00786274, Final residual = 4.91401e-09, No Iterations 3
DILUPBiCGStab:  Solving for O2, Initial residual = 0.00349062, Final residual = 2.75809e-09, No Iterations 3
DILUPBiCGStab:  Solving for H2O, Initial residual = 0.00349065, Final residual = 2.75807e-09, No Iterations 3
DILUPBiCGStab:  Solving for CH4, Initial residual = 0, Final residual = 0, No Iterations 0
DILUPBiCGStab:  Solving for CO2, Initial residual = 0.00349065, Final residual = 2.75808e-09, No Iterations 3
DILUPBiCGStab:  Solving for h, Initial residual = 0.00391009, Final residual = 2.68845e-09, No Iterations 3
min/max(T) = 299.961, 1044.98
GAMGPCG:  Solving for p_rgh, Initial residual = 0.0250568, Final residual = 1.76667e-07, No Iterations 5
diagonal:  Solving for rho, Initial residual = 0, Final residual = 0, No Iterations 0
time step continuity errors : sum local = 1.3913e-08, global = -3.33813e-09, cumulative = -1.57572e-07
GAMGPCG:  Solving for p_rgh, Initial residual = 0.00343307, Final residual = 3.96965e-07, No Iterations 4
diagonal:  Solving for rho, Initial residual = 0, Final residual = 0, No Iterations 0
time step continuity errors : sum local = 2.98971e-08, global = 4.42017e-09, cumulative = -1.53152e-07
DILUPBiCGStab:  Solving for omega, Initial residual = 0.000134615, Final residual = 1.49287e-09, No Iterations 2
DILUPBiCGStab:  Solving for k, Initial residual = 0.00642652, Final residual = 5.18935e-09, No Iterations 3

ExecutionTime = 5.09 s  ClockTime = 5 s

    Overall     = 0.00205263, 0.01
Time = 288

diagonal:  Solving for rho, Initial residual = 0, Final residual = 0, No Iterations 0

Execution time for mesh.update() = 0 s

DILUPBiCGStab:  Solving for Ux, Initial residual = 0.00699702, Final residual = 5.5443e-09, No Iterations 3
DILUPBiCGStab:  Solving for Uy, Initial residual = 0.00787641, Final residual = 4.75217e-09, No Iterations 3
DILUPBiCGStab:  Solving for O2, Initial residual = 0.00350594, Final residual = 2.69953e-09, No Iterations 3
DILUPBiCGStab:  Solving for H2O, Initial residual = 0.00350597, Final residual = 2.69952e-09, No Iterations 3
DILUPBiCGStab:  Solving for CH4, Initial residual = 0, Final residual = 0, No Iterations 0
DILUPBiCGStab:  Solving for CO2, Initial residual = 0.00350597, Final residual = 2.69952e-09, No Iterations 3
DILUPBiCGStab:  Solving for h, Initial residual = 0.00393205, Final residual = 2.59625e-09, No Iterations 3
min/max(T) = 299.951, 1044.98
GAMGPCG:  Solving for p_rgh, Initial residual = 0.0256491, Final residual = 1.72281e-07, No Iterations 5
diagonal:  Solving for rho, Initial residual = 0, Final residual = 0, No Iterations 0
time step continuity errors : sum local = 1.34796e-08, global = -3.27515e-09, cumulative = -1.56427e-07
GAMGPCG:  Solving for p_rgh, Initial residual = 0.00372556, Final residual = 3.74471e-07, No Iterations 4
diagonal:  Solving for rho, Initial residual = 0, Final residual = 0, No Iterations 0
time step continuity errors : sum local = 2.7976e-08, global = 4.21632e-09, cumulative = -1.52211e-07
DILUPBiCGStab:  Solving for omega, Initial residual = 0.000133798, Final residual = 1.50508e-09, No Iterations 2
DILUPBiCGStab:  Solving for k, Initial residual = 0.00648012, Final residual = 7.13218e-09, No Iterations 3

ExecutionTime = 5.21 s  ClockTime = 5 s

    Overall     = 0.00205103, 0.01
Time = 289

diagonal:  Solving for rho, Initial residual = 0, Final residual = 0, No Iterations 0

Execution time for mesh.update() = 0 s

DILUPBiCGStab:  Solving for Ux, Initial residual = 0.00705193, Final residual = 6.54986e-09, No Iterations 3
DILUPBiCGStab:  Solving for Uy, Initial residual = 0.00787477, Final residual = 4.84258e-09, No Iterations 3
DILUPBiCGStab:  Solving for O2, Initial residual = 0.00352386, Final residual = 2.55808e-09, No Iterations 3
DILUPBiCGStab:  Solving for H2O, Initial residual = 0.00352389, Final residual = 2.55807e-09, No Iterations 3
DILUPBiCGStab:  Solving for CH4, Initial residual = 0, Final residual = 0, No Iterations 0
DILUPBiCGStab:  Solving for CO2, Initial residual = 0.00352389, Final residual = 2.55807e-09, No Iterations 3
DILUPBiCGStab:  Solving for h, Initial residual = 0.00395527, Final residual = 2.42579e-09, No Iterations 3
min/max(T) = 299.952, 1044.98
GAMGPCG:  Solving for p_rgh, Initial residual = 0.0257069, Final residual = 1.40681e-07, No Iterations 5
diagonal:  Solving for rho, Initial residual = 0, Final residual = 0, No Iterations 0
time step continuity errors : sum local = 1.10952e-08, global = -2.7984e-09, cumulative = -1.5501e-07
GAMGPCG:  Solving for p_rgh, Initial residual = 0.00377548, Final residual = 3.9725e-07, No Iterations 4
diagonal:  Solving for rho, Initial residual = 0, Final residual = 0, No Iterations 0
time step continuity errors : sum local = 2.957e-08, global = 5.44952e-09, cumulative = -1.4956e-07
DILUPBiCGStab:  Solving for omega, Initial residual = 0.000135977, Final residual = 1.62055e-09, No Iterations 2
DILUPBiCGStab:  Solving for k, Initial residual = 0.00653196, Final residual = 3.42867e-09, No Iterations 3

ExecutionTime = 5.33 s  ClockTime = 5 s

    Overall     = 0.0020496, 0.01
Time = 290

diagonal:  Solving for rho, Initial residual = 0, Final residual = 0, No Iterations 0

Execution time for mesh.update() = 0 s

DILUPBiCGStab:  Solving for Ux, Initial residual = 0.00707732, Final residual = 6.89008e-09, No Iterations 3
DILUPBiCGStab:  Solving for Uy, Initial residual = 0.00786147, Final residual = 4.73832e-09, No Iterations 3
GAMGPCG:  Solving for G, Initial residual = 0.188502, Final residual = 8.46412e-05, No Iterations 7
DILUPBiCGStab:  Solving for O2, Initial residual = 0.00356072, Final residual = 2.52208e-09, No Iterations 3
DILUPBiCGStab:  Solving for H2O, Initial residual = 0.00356075, Final residual = 2.52207e-09, No Iterations 3
DILUPBiCGStab:  Solving for CH4, Initial residual = 0, Final residual = 0, No Iterations 0
DILUPBiCGStab:  Solving for CO2, Initial residual = 0.00356075, Final residual = 2.52207e-09, No Iterations 3
DILUPBiCGStab:  Solving for h, Initial residual = 0.00400572, Final residual = 2.36756e-09, No Iterations 3
min/max(T) = 299.955, 1044.98
GAMGPCG:  Solving for p_rgh, Initial residual = 0.0261704, Final residual = 1.62214e-07, No Iterations 5
diagonal:  Solving for rho, Initial residual = 0, Final residual = 0, No Iterations 0
time step continuity errors : sum local = 1.26462e-08, global = -3.35174e-09, cumulative = -1.52912e-07
GAMGPCG:  Solving for p_rgh, Initial residual = 0.00391776, Final residual = 4.48939e-07, No Iterations 4
diagonal:  Solving for rho, Initial residual = 0, Final residual = 0, No Iterations 0
time step continuity errors : sum local = 3.33305e-08, global = 5.87625e-09, cumulative = -1.47036e-07
DILUPBiCGStab:  Solving for omega, Initial residual = 0.000137397, Final residual = 1.57398e-09, No Iterations 2
DILUPBiCGStab:  Solving for k, Initial residual = 0.00658628, Final residual = 7.95141e-09, No Iterations 3

ExecutionTime = 5.59 s  ClockTime = 6 s

    Overall     = 0.00204677, 0.01
Time = 291

diagonal:  Solving for rho, Initial residual = 0, Final residual = 0, No Iterations 0

Execution time for mesh.update() = 0.01 s

DILUPBiCGStab:  Solving for Ux, Initial residual = 0.0071194, Final residual = 6.58883e-09, No Iterations 3
DILUPBiCGStab:  Solving for Uy, Initial residual = 0.00788004, Final residual = 4.8346e-09, No Iterations 3
DILUPBiCGStab:  Solving for O2, Initial residual = 0.00359596, Final residual = 2.4999e-09, No Iterations 3
DILUPBiCGStab:  Solving for H2O, Initial residual = 0.00359598, Final residual = 2.49989e-09, No Iterations 3
DILUPBiCGStab:  Solving for CH4, Initial residual = 0, Final residual = 0, No Iterations 0
DILUPBiCGStab:  Solving for CO2, Initial residual = 0.00359598, Final residual = 2.49989e-09, No Iterations 3
DILUPBiCGStab:  Solving for h, Initial residual = 0.00405086, Final residual = 2.36754e-09, No Iterations 3
min/max(T) = 299.966, 1044.98
GAMGPCG:  Solving for p_rgh, Initial residual = 0.0264057, Final residual = 1.30072e-07, No Iterations 5
diagonal:  Solving for rho, Initial residual = 0, Final residual = 0, No Iterations 0
time step continuity errors : sum local = 1.0096e-08, global = -2.34677e-09, cumulative = -1.49382e-07
GAMGPCG:  Solving for p_rgh, Initial residual = 0.00396121, Final residual = 5.01484e-07, No Iterations 4
diagonal:  Solving for rho, Initial residual = 0, Final residual = 0, No Iterations 0
time step continuity errors : sum local = 3.74799e-08, global = 7.78295e-09, cumulative = -1.41599e-07
DILUPBiCGStab:  Solving for omega, Initial residual = 0.000139537, Final residual = 1.6769e-09, No Iterations 2
DILUPBiCGStab:  Solving for k, Initial residual = 0.00665106, Final residual = 9.29533e-09, No Iterations 3

ExecutionTime = 5.71 s  ClockTime = 6 s

    Overall     = 0.00204522, 0.01
Time = 292

diagonal:  Solving for rho, Initial residual = 0, Final residual = 0, No Iterations 0

Execution time for mesh.update() = 0 s

DILUPBiCGStab:  Solving for Ux, Initial residual = 0.0071208, Final residual = 5.65029e-09, No Iterations 3
DILUPBiCGStab:  Solving for Uy, Initial residual = 0.00790365, Final residual = 4.7632e-09, No Iterations 3
DILUPBiCGStab:  Solving for O2, Initial residual = 0.00363665, Final residual = 2.67459e-09, No Iterations 3
DILUPBiCGStab:  Solving for H2O, Initial residual = 0.00363666, Final residual = 2.67458e-09, No Iterations 3
DILUPBiCGStab:  Solving for CH4, Initial residual = 0, Final residual = 0, No Iterations 0
DILUPBiCGStab:  Solving for CO2, Initial residual = 0.00363666, Final residual = 2.67458e-09, No Iterations 3
DILUPBiCGStab:  Solving for h, Initial residual = 0.00410986, Final residual = 2.61758e-09, No Iterations 3
min/max(T) = 299.985, 1044.98
GAMGPCG:  Solving for p_rgh, Initial residual = 0.0272406, Final residual = 1.29338e-07, No Iterations 5
diagonal:  Solving for rho, Initial residual = 0, Final residual = 0, No Iterations 0
time step continuity errors : sum local = 1.00246e-08, global = -2.45473e-09, cumulative = -1.44054e-07
GAMGPCG:  Solving for p_rgh, Initial residual = 0.00397834, Final residual = 5.53268e-07, No Iterations 4
diagonal:  Solving for rho, Initial residual = 0, Final residual = 0, No Iterations 0
time step continuity errors : sum local = 4.10973e-08, global = 7.22779e-09, cumulative = -1.36826e-07
DILUPBiCGStab:  Solving for omega, Initial residual = 0.000142732, Final residual = 1.59613e-09, No Iterations 2
DILUPBiCGStab:  Solving for k, Initial residual = 0.00671901, Final residual = 6.40362e-09, No Iterations 3

ExecutionTime = 5.83 s  ClockTime = 6 s

    Overall     = 0.00204172, 0.01
Time = 293

diagonal:  Solving for rho, Initial residual = 0, Final residual = 0, No Iterations 0

[...]

Execution time for mesh.update() = 0 s

DILUPBiCGStab:  Solving for Ux, Initial residual = 0.00626503, Final residual = 5.75328e-09, No Iterations 3
DILUPBiCGStab:  Solving for Uy, Initial residual = 0.0054213, Final residual = 6.57779e-09, No Iterations 3
GAMGPCG:  Solving for G, Initial residual = 0.230433, Final residual = 8.23645e-05, No Iterations 5
DILUPBiCGStab:  Solving for O2, Initial residual = 0.00225855, Final residual = 2.45883e-09, No Iterations 3
DILUPBiCGStab:  Solving for H2O, Initial residual = 0.00225855, Final residual = 2.45883e-09, No Iterations 3
DILUPBiCGStab:  Solving for CH4, Initial residual = 0, Final residual = 0, No Iterations 0
DILUPBiCGStab:  Solving for CO2, Initial residual = 0.00225855, Final residual = 2.45883e-09, No Iterations 3
DILUPBiCGStab:  Solving for h, Initial residual = 0.00257461, Final residual = 2.80927e-09, No Iterations 3
min/max(T) = 300, 1044.98
GAMGPCG:  Solving for p_rgh, Initial residual = 0.023969, Final residual = 3.51116e-07, No Iterations 5
diagonal:  Solving for rho, Initial residual = 0, Final residual = 0, No Iterations 0
time step continuity errors : sum local = 1.21324e-08, global = 1.11853e-09, cumulative = 2.9905e-06
GAMGPCG:  Solving for p_rgh, Initial residual = 0.00388946, Final residual = 5.46828e-07, No Iterations 4
diagonal:  Solving for rho, Initial residual = 0, Final residual = 0, No Iterations 0
time step continuity errors : sum local = 1.87786e-08, global = -2.896e-09, cumulative = 2.98761e-06
DILUPBiCGStab:  Solving for omega, Initial residual = 0.000108526, Final residual = 2.0394e-09, No Iterations 2
DILUPBiCGStab:  Solving for k, Initial residual = 0.00491669, Final residual = 3.52281e-09, No Iterations 3

ExecutionTime = 298.76 s  ClockTime = 299 s

    Overall     = 0.00127608, 0.01
Time = 2491

diagonal:  Solving for rho, Initial residual = 0, Final residual = 0, No Iterations 0

Execution time for mesh.update() = 0 s

DILUPBiCGStab:  Solving for Ux, Initial residual = 0.00623693, Final residual = 6.08913e-09, No Iterations 3
DILUPBiCGStab:  Solving for Uy, Initial residual = 0.00540816, Final residual = 6.50939e-09, No Iterations 3
DILUPBiCGStab:  Solving for O2, Initial residual = 0.00225614, Final residual = 2.4654e-09, No Iterations 3
DILUPBiCGStab:  Solving for H2O, Initial residual = 0.00225614, Final residual = 2.4654e-09, No Iterations 3
DILUPBiCGStab:  Solving for CH4, Initial residual = 0, Final residual = 0, No Iterations 0
DILUPBiCGStab:  Solving for CO2, Initial residual = 0.00225614, Final residual = 2.4654e-09, No Iterations 3
DILUPBiCGStab:  Solving for h, Initial residual = 0.0025685, Final residual = 2.81036e-09, No Iterations 3
min/max(T) = 300, 1044.98
GAMGPCG:  Solving for p_rgh, Initial residual = 0.0240145, Final residual = 3.33241e-07, No Iterations 5
diagonal:  Solving for rho, Initial residual = 0, Final residual = 0, No Iterations 0
time step continuity errors : sum local = 1.15266e-08, global = 6.6637e-10, cumulative = 2.98828e-06
GAMGPCG:  Solving for p_rgh, Initial residual = 0.00384185, Final residual = 5.23917e-07, No Iterations 4
diagonal:  Solving for rho, Initial residual = 0, Final residual = 0, No Iterations 0
time step continuity errors : sum local = 1.79894e-08, global = -2.77246e-09, cumulative = 2.9855e-06
DILUPBiCGStab:  Solving for omega, Initial residual = 0.000108466, Final residual = 2.06475e-09, No Iterations 2
DILUPBiCGStab:  Solving for k, Initial residual = 0.0049126, Final residual = 3.44412e-09, No Iterations 3

ExecutionTime = 298.89 s  ClockTime = 299 s

    Overall     = 0.00127742, 0.01
Time = 2492

diagonal:  Solving for rho, Initial residual = 0, Final residual = 0, No Iterations 0

Execution time for mesh.update() = 0 s

DILUPBiCGStab:  Solving for Ux, Initial residual = 0.00626304, Final residual = 6.52009e-09, No Iterations 3
DILUPBiCGStab:  Solving for Uy, Initial residual = 0.0053853, Final residual = 6.97118e-09, No Iterations 3
DILUPBiCGStab:  Solving for O2, Initial residual = 0.00224713, Final residual = 2.58252e-09, No Iterations 3
DILUPBiCGStab:  Solving for H2O, Initial residual = 0.00224713, Final residual = 2.58252e-09, No Iterations 3
DILUPBiCGStab:  Solving for CH4, Initial residual = 0, Final residual = 0, No Iterations 0
DILUPBiCGStab:  Solving for CO2, Initial residual = 0.00224713, Final residual = 2.58252e-09, No Iterations 3
DILUPBiCGStab:  Solving for h, Initial residual = 0.00255819, Final residual = 2.91183e-09, No Iterations 3
min/max(T) = 300, 1044.98
GAMGPCG:  Solving for p_rgh, Initial residual = 0.0234715, Final residual = 3.26866e-07, No Iterations 5
diagonal:  Solving for rho, Initial residual = 0, Final residual = 0, No Iterations 0
time step continuity errors : sum local = 1.14083e-08, global = 1.01829e-10, cumulative = 2.9856e-06
GAMGPCG:  Solving for p_rgh, Initial residual = 0.00386303, Final residual = 5.23372e-07, No Iterations 4
diagonal:  Solving for rho, Initial residual = 0, Final residual = 0, No Iterations 0
time step continuity errors : sum local = 1.78563e-08, global = -2.79457e-09, cumulative = 2.98281e-06
DILUPBiCGStab:  Solving for omega, Initial residual = 0.000108338, Final residual = 2.07246e-09, No Iterations 2
DILUPBiCGStab:  Solving for k, Initial residual = 0.00491047, Final residual = 3.34525e-09, No Iterations 3

ExecutionTime = 299 s  ClockTime = 299 s

    Overall     = 0.00127165, 0.01
Time = 2493

diagonal:  Solving for rho, Initial residual = 0, Final residual = 0, No Iterations 0

Execution time for mesh.update() = 0 s

DILUPBiCGStab:  Solving for Ux, Initial residual = 0.00623291, Final residual = 6.27508e-09, No Iterations 3
DILUPBiCGStab:  Solving for Uy, Initial residual = 0.00537021, Final residual = 7.52623e-09, No Iterations 3
DILUPBiCGStab:  Solving for O2, Initial residual = 0.00225003, Final residual = 2.66118e-09, No Iterations 3
DILUPBiCGStab:  Solving for H2O, Initial residual = 0.00225003, Final residual = 2.66118e-09, No Iterations 3
DILUPBiCGStab:  Solving for CH4, Initial residual = 0, Final residual = 0, No Iterations 0
DILUPBiCGStab:  Solving for CO2, Initial residual = 0.00225003, Final residual = 2.66118e-09, No Iterations 3
DILUPBiCGStab:  Solving for h, Initial residual = 0.00256584, Final residual = 3.04927e-09, No Iterations 3
min/max(T) = 300, 1044.98
GAMGPCG:  Solving for p_rgh, Initial residual = 0.0237002, Final residual = 3.20037e-07, No Iterations 5
diagonal:  Solving for rho, Initial residual = 0, Final residual = 0, No Iterations 0
time step continuity errors : sum local = 1.13644e-08, global = 1.20985e-11, cumulative = 2.98282e-06
GAMGPCG:  Solving for p_rgh, Initial residual = 0.00386661, Final residual = 5.17375e-07, No Iterations 4
diagonal:  Solving for rho, Initial residual = 0, Final residual = 0, No Iterations 0
time step continuity errors : sum local = 1.76913e-08, global = -2.64523e-09, cumulative = 2.98018e-06
DILUPBiCGStab:  Solving for omega, Initial residual = 0.000108401, Final residual = 2.03407e-09, No Iterations 2
DILUPBiCGStab:  Solving for k, Initial residual = 0.00490399, Final residual = 3.15332e-09, No Iterations 3

ExecutionTime = 299.12 s  ClockTime = 299 s

    Overall     = 0.00127267, 0.01
Time = 2494

diagonal:  Solving for rho, Initial residual = 0, Final residual = 0, No Iterations 0

Execution time for mesh.update() = 0 s

DILUPBiCGStab:  Solving for Ux, Initial residual = 0.00622374, Final residual = 6.26291e-09, No Iterations 3
DILUPBiCGStab:  Solving for Uy, Initial residual = 0.00534255, Final residual = 7.23214e-09, No Iterations 3
DILUPBiCGStab:  Solving for O2, Initial residual = 0.0022434, Final residual = 3.19661e-09, No Iterations 3
DILUPBiCGStab:  Solving for H2O, Initial residual = 0.0022434, Final residual = 3.19661e-09, No Iterations 3
DILUPBiCGStab:  Solving for CH4, Initial residual = 0, Final residual = 0, No Iterations 0
DILUPBiCGStab:  Solving for CO2, Initial residual = 0.0022434, Final residual = 3.19661e-09, No Iterations 3
DILUPBiCGStab:  Solving for h, Initial residual = 0.00255479, Final residual = 3.62461e-09, No Iterations 3
min/max(T) = 300, 1044.98
GAMGPCG:  Solving for p_rgh, Initial residual = 0.0234115, Final residual = 3.10796e-07, No Iterations 5
diagonal:  Solving for rho, Initial residual = 0, Final residual = 0, No Iterations 0
time step continuity errors : sum local = 1.10085e-08, global = 5.25117e-10, cumulative = 2.9807e-06
GAMGPCG:  Solving for p_rgh, Initial residual = 0.00386291, Final residual = 4.95109e-07, No Iterations 4
diagonal:  Solving for rho, Initial residual = 0, Final residual = 0, No Iterations 0
time step continuity errors : sum local = 1.68487e-08, global = -2.51652e-09, cumulative = 2.97819e-06
DILUPBiCGStab:  Solving for omega, Initial residual = 0.00010849, Final residual = 2.01881e-09, No Iterations 2
DILUPBiCGStab:  Solving for k, Initial residual = 0.0049023, Final residual = 3.31414e-09, No Iterations 3

ExecutionTime = 299.24 s  ClockTime = 299 s

    Overall     = 0.00126708, 0.01
Time = 2495

diagonal:  Solving for rho, Initial residual = 0, Final residual = 0, No Iterations 0

Execution time for mesh.update() = 0 s

DILUPBiCGStab:  Solving for Ux, Initial residual = 0.00621686, Final residual = 6.73364e-09, No Iterations 3
DILUPBiCGStab:  Solving for Uy, Initial residual = 0.00532499, Final residual = 7.17339e-09, No Iterations 3
DILUPBiCGStab:  Solving for O2, Initial residual = 0.00225171, Final residual = 3.94975e-09, No Iterations 3
DILUPBiCGStab:  Solving for H2O, Initial residual = 0.00225171, Final residual = 3.94975e-09, No Iterations 3
DILUPBiCGStab:  Solving for CH4, Initial residual = 0, Final residual = 0, No Iterations 0
DILUPBiCGStab:  Solving for CO2, Initial residual = 0.00225171, Final residual = 3.94975e-09, No Iterations 3
DILUPBiCGStab:  Solving for h, Initial residual = 0.00256414, Final residual = 3.96849e-09, No Iterations 3
min/max(T) = 300, 1044.98
GAMGPCG:  Solving for p_rgh, Initial residual = 0.0232768, Final residual = 2.96306e-07, No Iterations 5
diagonal:  Solving for rho, Initial residual = 0, Final residual = 0, No Iterations 0
time step continuity errors : sum local = 1.03479e-08, global = 5.51679e-10, cumulative = 2.97874e-06
GAMGPCG:  Solving for p_rgh, Initial residual = 0.00387059, Final residual = 4.91938e-07, No Iterations 4
diagonal:  Solving for rho, Initial residual = 0, Final residual = 0, No Iterations 0
time step continuity errors : sum local = 1.67332e-08, global = -2.38685e-09, cumulative = 2.97635e-06
DILUPBiCGStab:  Solving for omega, Initial residual = 0.000108702, Final residual = 1.98381e-09, No Iterations 2
DILUPBiCGStab:  Solving for k, Initial residual = 0.00489632, Final residual = 3.60181e-09, No Iterations 3

ExecutionTime = 299.36 s  ClockTime = 299 s

    Overall     = 0.00126829, 0.01
Time = 2496

diagonal:  Solving for rho, Initial residual = 0, Final residual = 0, No Iterations 0

Execution time for mesh.update() = 0 s

DILUPBiCGStab:  Solving for Ux, Initial residual = 0.00621148, Final residual = 6.91722e-09, No Iterations 3
DILUPBiCGStab:  Solving for Uy, Initial residual = 0.00532066, Final residual = 7.31099e-09, No Iterations 3
DILUPBiCGStab:  Solving for O2, Initial residual = 0.00224769, Final residual = 5.04816e-09, No Iterations 3
DILUPBiCGStab:  Solving for H2O, Initial residual = 0.00224769, Final residual = 5.04816e-09, No Iterations 3
DILUPBiCGStab:  Solving for CH4, Initial residual = 0, Final residual = 0, No Iterations 0
DILUPBiCGStab:  Solving for CO2, Initial residual = 0.00224769, Final residual = 5.04816e-09, No Iterations 3
DILUPBiCGStab:  Solving for h, Initial residual = 0.00255834, Final residual = 4.43994e-09, No Iterations 3
min/max(T) = 300, 1044.98
GAMGPCG:  Solving for p_rgh, Initial residual = 0.0227637, Final residual = 2.58525e-07, No Iterations 5
diagonal:  Solving for rho, Initial residual = 0, Final residual = 0, No Iterations 0
time step continuity errors : sum local = 9.1361e-09, global = 7.68031e-10, cumulative = 2.97712e-06
GAMGPCG:  Solving for p_rgh, Initial residual = 0.00392976, Final residual = 4.88914e-07, No Iterations 4
diagonal:  Solving for rho, Initial residual = 0, Final residual = 0, No Iterations 0
time step continuity errors : sum local = 1.65246e-08, global = -1.9913e-09, cumulative = 2.97513e-06
DILUPBiCGStab:  Solving for omega, Initial residual = 0.000109006, Final residual = 2.05206e-09, No Iterations 2
DILUPBiCGStab:  Solving for k, Initial residual = 0.00488691, Final residual = 3.5902e-09, No Iterations 3

ExecutionTime = 299.48 s  ClockTime = 299 s

    Overall     = 0.0012631, 0.01
Time = 2497

diagonal:  Solving for rho, Initial residual = 0, Final residual = 0, No Iterations 0

Execution time for mesh.update() = 0 s

DILUPBiCGStab:  Solving for Ux, Initial residual = 0.00617932, Final residual = 7.43625e-09, No Iterations 3
DILUPBiCGStab:  Solving for Uy, Initial residual = 0.00532777, Final residual = 6.83953e-09, No Iterations 3
DILUPBiCGStab:  Solving for O2, Initial residual = 0.00225941, Final residual = 8.76397e-10, No Iterations 3
DILUPBiCGStab:  Solving for H2O, Initial residual = 0.00225941, Final residual = 8.76397e-10, No Iterations 3
DILUPBiCGStab:  Solving for CH4, Initial residual = 0, Final residual = 0, No Iterations 0
DILUPBiCGStab:  Solving for CO2, Initial residual = 0.00225941, Final residual = 8.76397e-10, No Iterations 3
DILUPBiCGStab:  Solving for h, Initial residual = 0.00256985, Final residual = 8.96188e-09, No Iterations 3
min/max(T) = 300, 1044.98
GAMGPCG:  Solving for p_rgh, Initial residual = 0.0226098, Final residual = 2.47901e-07, No Iterations 5
diagonal:  Solving for rho, Initial residual = 0, Final residual = 0, No Iterations 0
time step continuity errors : sum local = 8.73578e-09, global = 5.52296e-10, cumulative = 2.97568e-06
GAMGPCG:  Solving for p_rgh, Initial residual = 0.00387721, Final residual = 5.14875e-07, No Iterations 4
diagonal:  Solving for rho, Initial residual = 0, Final residual = 0, No Iterations 0
time step continuity errors : sum local = 1.74544e-08, global = -1.79624e-09, cumulative = 2.97388e-06
DILUPBiCGStab:  Solving for omega, Initial residual = 0.000109512, Final residual = 2.08311e-09, No Iterations 2
DILUPBiCGStab:  Solving for k, Initial residual = 0.00488241, Final residual = 3.61606e-09, No Iterations 3

ExecutionTime = 299.6 s  ClockTime = 300 s

    Overall     = 0.00126496, 0.01
Time = 2498

diagonal:  Solving for rho, Initial residual = 0, Final residual = 0, No Iterations 0

Execution time for mesh.update() = 0 s

DILUPBiCGStab:  Solving for Ux, Initial residual = 0.00617567, Final residual = 7.51855e-09, No Iterations 3
DILUPBiCGStab:  Solving for Uy, Initial residual = 0.00531068, Final residual = 7.00504e-09, No Iterations 3
DILUPBiCGStab:  Solving for O2, Initial residual = 0.00225775, Final residual = 3.87123e-09, No Iterations 3
DILUPBiCGStab:  Solving for H2O, Initial residual = 0.00225775, Final residual = 3.87123e-09, No Iterations 3
DILUPBiCGStab:  Solving for CH4, Initial residual = 0, Final residual = 0, No Iterations 0
DILUPBiCGStab:  Solving for CO2, Initial residual = 0.00225775, Final residual = 3.87123e-09, No Iterations 3
DILUPBiCGStab:  Solving for h, Initial residual = 0.00256844, Final residual = 5.34689e-09, No Iterations 3
min/max(T) = 300, 1044.98
GAMGPCG:  Solving for p_rgh, Initial residual = 0.0227279, Final residual = 2.31485e-07, No Iterations 5
diagonal:  Solving for rho, Initial residual = 0, Final residual = 0, No Iterations 0
time step continuity errors : sum local = 8.13062e-09, global = 4.69741e-10, cumulative = 2.97435e-06
GAMGPCG:  Solving for p_rgh, Initial residual = 0.00392416, Final residual = 5.4006e-07, No Iterations 4
diagonal:  Solving for rho, Initial residual = 0, Final residual = 0, No Iterations 0
time step continuity errors : sum local = 1.82563e-08, global = 1.38623e-10, cumulative = 2.97449e-06
DILUPBiCGStab:  Solving for omega, Initial residual = 0.000109876, Final residual = 2.14965e-09, No Iterations 2
DILUPBiCGStab:  Solving for k, Initial residual = 0.00487142, Final residual = 3.8066e-09, No Iterations 3

ExecutionTime = 299.71 s  ClockTime = 300 s

    Overall     = 0.00126064, 0.01
Time = 2499

diagonal:  Solving for rho, Initial residual = 0, Final residual = 0, No Iterations 0

Execution time for mesh.update() = 0 s

DILUPBiCGStab:  Solving for Ux, Initial residual = 0.00614703, Final residual = 7.76871e-09, No Iterations 3
DILUPBiCGStab:  Solving for Uy, Initial residual = 0.00532141, Final residual = 7.47893e-09, No Iterations 3
DILUPBiCGStab:  Solving for O2, Initial residual = 0.00226404, Final residual = 2.57936e-09, No Iterations 3
DILUPBiCGStab:  Solving for H2O, Initial residual = 0.00226404, Final residual = 2.57936e-09, No Iterations 3
DILUPBiCGStab:  Solving for CH4, Initial residual = 0, Final residual = 0, No Iterations 0
DILUPBiCGStab:  Solving for CO2, Initial residual = 0.00226404, Final residual = 2.57936e-09, No Iterations 3
DILUPBiCGStab:  Solving for h, Initial residual = 0.00257929, Final residual = 2.72396e-09, No Iterations 3
min/max(T) = 300, 1044.98
GAMGPCG:  Solving for p_rgh, Initial residual = 0.0226643, Final residual = 2.87966e-07, No Iterations 5
diagonal:  Solving for rho, Initial residual = 0, Final residual = 0, No Iterations 0
time step continuity errors : sum local = 1.01293e-08, global = 4.13747e-10, cumulative = 2.97491e-06
GAMGPCG:  Solving for p_rgh, Initial residual = 0.00395075, Final residual = 5.67646e-07, No Iterations 4
diagonal:  Solving for rho, Initial residual = 0, Final residual = 0, No Iterations 0
time step continuity errors : sum local = 1.91095e-08, global = 7.4959e-10, cumulative = 2.97565e-06
DILUPBiCGStab:  Solving for omega, Initial residual = 0.000110522, Final residual = 2.05933e-09, No Iterations 2
DILUPBiCGStab:  Solving for k, Initial residual = 0.00486059, Final residual = 3.86759e-09, No Iterations 3

ExecutionTime = 299.84 s  ClockTime = 300 s

    Overall     = 0.00126335, 0.01
Time = 2500

diagonal:  Solving for rho, Initial residual = 0, Final residual = 0, No Iterations 0

Execution time for mesh.update() = 0 s

DILUPBiCGStab:  Solving for Ux, Initial residual = 0.00613882, Final residual = 7.71182e-09, No Iterations 3
DILUPBiCGStab:  Solving for Uy, Initial residual = 0.00533226, Final residual = 7.70346e-09, No Iterations 3
GAMGPCG:  Solving for G, Initial residual = 0.189321, Final residual = 6.09891e-05, No Iterations 5
DILUPBiCGStab:  Solving for O2, Initial residual = 0.00226758, Final residual = 2.54807e-09, No Iterations 3
DILUPBiCGStab:  Solving for H2O, Initial residual = 0.00226758, Final residual = 2.54807e-09, No Iterations 3
DILUPBiCGStab:  Solving for CH4, Initial residual = 0, Final residual = 0, No Iterations 0
DILUPBiCGStab:  Solving for CO2, Initial residual = 0.00226758, Final residual = 2.54807e-09, No Iterations 3
DILUPBiCGStab:  Solving for h, Initial residual = 0.00257892, Final residual = 2.70187e-09, No Iterations 3
min/max(T) = 300, 1044.98
GAMGPCG:  Solving for p_rgh, Initial residual = 0.0225491, Final residual = 2.83793e-07, No Iterations 5
diagonal:  Solving for rho, Initial residual = 0, Final residual = 0, No Iterations 0
time step continuity errors : sum local = 9.94549e-09, global = 9.08346e-10, cumulative = 2.97656e-06
GAMGPCG:  Solving for p_rgh, Initial residual = 0.00400867, Final residual = 5.86013e-07, No Iterations 4
diagonal:  Solving for rho, Initial residual = 0, Final residual = 0, No Iterations 0
time step continuity errors : sum local = 1.9635e-08, global = 1.76425e-09, cumulative = 2.97833e-06
DILUPBiCGStab:  Solving for omega, Initial residual = 0.000110503, Final residual = 2.13765e-09, No Iterations 2
DILUPBiCGStab:  Solving for k, Initial residual = 0.00485247, Final residual = 4.58981e-09, No Iterations 3

ExecutionTime = 300.09 s  ClockTime = 300 s


Patch Mean : 302.523
Patch Variance : 0.0423387
Patch Gradient : 0.176572
End
